CemigDFeeders/CGAU10/CGAU10SegmentosMT.dss
new line.TR10209753 bus1=BMT6375924B.1.2.3,bus2=BMT161060117.1.2.3,Phases=3,Linecode=CAB107_3_3,Length=0.018370000,Units=km
new line.TR10214 bus1=BMT6575B.1.2.3,bus2=BMT164934448.1.2.3,Phases=3,Linecode=CAB103_3_3,Length=0.024980000,Units=km
new line.TR10461256 bus1=BMT54427B.1.2.3,bus2=BMT155973738.1.2.3,Phases=3,Linecode=CAB103_3_3,Length=0.037620000,Units=km
new line.TR10627 bus1=BMT6841B.1.2.3,bus2=BMT6834B.1.2.3,Phases=3,Linecode=CAB103_3_3,Length=0.023420000,Units=km
new line.TR1079 bus1=BMT989B.1.2.3,bus2=BMT155973490.1.2.3,Phases=3,Linecode=CAB103_3_3,Length=0.034340000,Units=km
new line.TR10802485 bus1=BMT779B.1,bus2=BMT7059817B.1,Phases=1,Linecode=CAB102_3_1,Length=0.009990000,Units=km
new line.TR10802492 bus1=BMT7059817B.1,bus2=BMT772B.1,Phases=1,Linecode=CAB102_3_1,Length=0.018590000,Units=km
new line.TR10808057 bus1=BMT2298B.1.2.3,bus2=BMT7064304B.1.2.3,Phases=3,Linecode=CAB103_3_3,Length=0.010620000,Units=km
new line.TR10808064 bus1=BMT7064304B.1.2.3,bus2=BMT2284B.1.2.3,Phases=3,Linecode=CAB103_3_3,Length=0.005000000,Units=km
new line.TR1121 bus1=BMT1003B.1.2.3,bus2=BMT996B.1.2.3,Phases=3,Linecode=CAB103_3_3,Length=0.038050000,Units=km
new line.TR11215 bus1=BMT7170B.1.2.3,bus2=BMT155973619.1.2.3,Phases=3,Linecode=CAB103_3_3,Length=0.014990000,Units=km
new line.TR11229 bus1=BMT155973621.1.2.3,bus2=BMT155973622.1.2.3,Phases=3,Linecode=CAB102_3_3,Length=0.030390000,Units=km
new line.TR11236 bus1=BMT155973622.1,bus2=BMT7198B.1,Phases=1,Linecode=CAB102_3_1,Length=0.034340000,Units=km
new line.TR11243 bus1=BMT155973622.1.2.3,bus2=BMT7583B.1.2.3,Phases=3,Linecode=CAB103_3_3,Length=0.026550000,Units=km
new line.TR11496402 bus1=BMT163853380.1.2.3,bus2=BMT7705448B.1.2.3,Phases=3,Linecode=CABA06_3_3,Length=0.033500000,Units=km
new line.TR11496416 bus1=BMT7705448B.1.2.3,bus2=BMT7705455B.1.2.3,Phases=3,Linecode=CABA06_3_3,Length=0.018960000,Units=km
new line.TR11496423 bus1=BMT7705455B.1.2.3,bus2=BMT7705462B.1.2.3,Phases=3,Linecode=CABA06_3_3,Length=0.051890000,Units=km
new line.TR11496430 bus1=BMT7705462B.1.2.3,bus2=BMT7705469B.1.2.3,Phases=3,Linecode=CABA06_3_3,Length=0.050570000,Units=km
new line.TR11496437 bus1=BMT7705469B.1.2.3,bus2=BMT7705483B.1.2.3,Phases=3,Linecode=CABA06_3_3,Length=0.037420000,Units=km
new line.TR11496521 bus1=BMT7705483B.1.2.3,bus2=BMT7705511B.1.2.3,Phases=3,Linecode=CABA06_3_3,Length=0.031040000,Units=km
new line.TR11496528 bus1=BMT7705511B.1.2.3,bus2=BMT7705553B.1.2.3,Phases=3,Linecode=CABA06_3_3,Length=0.021010000,Units=km
new line.TR11496535 bus1=BMT7705553B.1.2.3,bus2=BMT7705560B.1.2.3,Phases=3,Linecode=CABA06_3_3,Length=0.024400000,Units=km
new line.TR11496542 bus1=BMT7705560B.1.2.3,bus2=BMT163853381.1.2.3,Phases=3,Linecode=CABA06_3_3,Length=0.025480000,Units=km
new line.TR11496549 bus1=BMT163853381.1.2.3,bus2=BMT7705581B.1.2.3,Phases=3,Linecode=CABA06_3_3,Length=0.037620000,Units=km
new line.TR11496612 bus1=BMT7705581B.1.2.3,bus2=BMT163853382.1.2.3,Phases=3,Linecode=CABA06_3_3,Length=0.044660000,Units=km
new line.TR11497445 bus1=BMT163853381.1.2.3,bus2=BMT7706729B.1.2.3,Phases=3,Linecode=CABA06_3_3,Length=0.026000000,Units=km
new line.TR11497459 bus1=BMT7706729B.1.2.3,bus2=BMT7706771B.1.2.3,Phases=3,Linecode=CABA06_3_3,Length=0.038970000,Units=km
new line.TR11497466 bus1=BMT7706771B.1.2.3,bus2=BMT7706792B.1.2.3,Phases=3,Linecode=CABA06_3_3,Length=0.040280000,Units=km
new line.TR11497473 bus1=BMT7706792B.1.2.3,bus2=BMT7706799B.1.2.3,Phases=3,Linecode=CABA06_3_3,Length=0.036030000,Units=km
new line.TR11497480 bus1=BMT7706799B.1.2.3,bus2=BMT7706806B.1.2.3,Phases=3,Linecode=CABA06_3_3,Length=0.033590000,Units=km
new line.TR11497487 bus1=BMT7706806B.1.2.3,bus2=BMT163853383.1.2.3,Phases=3,Linecode=CABA06_3_3,Length=0.041010000,Units=km
new line.TR11497494 bus1=BMT163853383.1.2.3,bus2=BMT7706848B.1.2.3,Phases=3,Linecode=CABA06_3_3,Length=0.030390000,Units=km
new line.TR11497529 bus1=BMT7706848B.1.2.3,bus2=BMT163853384.1.2.3,Phases=3,Linecode=CABA06_3_3,Length=0.025060000,Units=km
new line.TR11498334 bus1=BMT163853383.1.2.3,bus2=BMT7707660B.1.2.3,Phases=3,Linecode=CABA06_3_3,Length=0.025220000,Units=km
new line.TR11498341 bus1=BMT7707660B.1.2.3,bus2=BMT7707646B.1.2.3,Phases=3,Linecode=CABA06_3_3,Length=0.033920000,Units=km
new line.TR11498348 bus1=BMT7707646B.1.2.3,bus2=BMT163853385.1.2.3,Phases=3,Linecode=CABA06_3_3,Length=0.024400000,Units=km
new line.TR11498355 bus1=BMT163853385.1.2.3,bus2=BMT7707541B.1.2.3,Phases=3,Linecode=CABA06_3_3,Length=0.040430000,Units=km
new line.TR11498397 bus1=BMT7707541B.1.2.3,bus2=BMT7707527B.1.2.3,Phases=3,Linecode=CABA06_3_3,Length=0.037780000,Units=km
new line.TR11498404 bus1=BMT7707527B.1.2.3,bus2=BMT163853386.1.2.3,Phases=3,Linecode=CABA06_3_3,Length=0.026850000,Units=km
new line.TR11498929 bus1=BMT7708136B.1.2.3,bus2=BMT7708150B.1.2.3,Phases=3,Linecode=CABA06_3_3,Length=0.045150000,Units=km
new line.TR11498936 bus1=BMT7708150B.1.2.3,bus2=BMT7708157B.1.2.3,Phases=3,Linecode=CABA06_3_3,Length=0.026000000,Units=km
new line.TR11498943 bus1=BMT7708157B.1.2.3,bus2=BMT7708178B.1.2.3,Phases=3,Linecode=CABA06_3_3,Length=0.027150000,Units=km
new line.TR11498978 bus1=BMT7708178B.1.2.3,bus2=BMT7708206B.1.2.3,Phases=3,Linecode=CABA06_3_3,Length=0.023180000,Units=km
new line.TR11498992 bus1=BMT7708206B.1.2.3,bus2=BMT7708213B.1.2.3,Phases=3,Linecode=CABA06_3_3,Length=0.028160000,Units=km
new line.TR11499048 bus1=BMT7708213B.1.2.3,bus2=BMT7708360B.1.2.3,Phases=3,Linecode=CABA06_3_3,Length=0.032120000,Units=km
new line.TR11499055 bus1=BMT7708360B.1.2.3,bus2=BMT7708367B.1.2.3,Phases=3,Linecode=CABA06_3_3,Length=0.038090000,Units=km
new line.TR11499062 bus1=BMT7708367B.1.2.3,bus2=BMT163853387.1.2.3,Phases=3,Linecode=CABA06_3_3,Length=0.034520000,Units=km
new line.TR11775 bus1=BMT7478B.1,bus2=BMT7457B.1,Phases=1,Linecode=CAB103_3_1,Length=0.034420000,Units=km
new line.TR11796 bus1=BMT7492B.1,bus2=BMT7478B.1,Phases=1,Linecode=CAB103_3_1,Length=0.033080000,Units=km
new line.TR11894 bus1=BMT7597B.1.2.3,bus2=BMT155973624.1.2.3,Phases=3,Linecode=CAB103_3_3,Length=0.024500000,Units=km
new line.TR11901 bus1=BMT7604B.1.2.3,bus2=BMT155973625.1.2.3,Phases=3,Linecode=CAB103_3_3,Length=0.017250000,Units=km
new line.TR12034 bus1=BMT7716B.1.2.3,bus2=BMT6918B.1.2.3,Phases=3,Linecode=CAB106_3_3,Length=0.029950000,Units=km
new line.TR12048 bus1=BMT7723B.1.2.3,bus2=BMT7716B.1.2.3,Phases=3,Linecode=CAB106_3_3,Length=0.027770000,Units=km
new line.TR12121168 bus1=BMT155973768.1.2.3,bus2=BMT8713888B.1.2.3,Phases=3,Linecode=CABA08_3_3,Length=0.009840000,Units=km
new line.TR12121169 bus1=BMT8713888B.1.2.3,bus2=BMT155973769.1.2.3,Phases=3,Linecode=CABA08_3_3,Length=0.016630000,Units=km
new line.TR12121171 bus1=BMT155973769.1.2.3,bus2=BMT8713938B.1.2.3,Phases=3,Linecode=CABA08_3_3,Length=0.028630000,Units=km
new line.TR1016 bus1=BMT169323419.1,bus2=BMT1150B.1,Phases=1,Linecode=CAB103_3_1,Length=0.033350000,Units=km
new line.TR10347 bus1=BMT6624B.1.2.3,bus2=BMT155973504.1.2.3,Phases=3,Linecode=CAB103_3_3,Length=0.012360000,Units=km
new line.TR10368 bus1=BMT155973503.1.2.3,bus2=BMT6624B.1.2.3,Phases=3,Linecode=CAB103_3_3,Length=0.015290000,Units=km
new line.TR10599 bus1=BMT6827B.1.2.3,bus2=BMT155973629.1.2.3,Phases=3,Linecode=CAB103_3_3,Length=0.036380000,Units=km
new line.TR10613 bus1=BMT6834B.1.2.3,bus2=BMT6827B.1.2.3,Phases=3,Linecode=CAB103_3_3,Length=0.033950000,Units=km
new line.TR11091277 bus1=BMT8381B.1,bus2=BMT7311411B.1,Phases=1,Linecode=CAB102_3_1,Length=0.011390000,Units=km
new line.TR11091284 bus1=BMT7311411B.1,bus2=BMT8388B.1,Phases=1,Linecode=CAB102_3_1,Length=0.012800000,Units=km
new line.TR11091536 bus1=BMT3901B.1,bus2=BMT7311614B.1,Phases=1,Linecode=CAB102_3_1,Length=0.008480000,Units=km
new line.TR11091543 bus1=BMT7311614B.1,bus2=BMT156364226.1,Phases=1,Linecode=CAB102_3_1,Length=0.018430000,Units=km
new line.TR11257 bus1=BMT7198B.1,bus2=BMT7205B.1,Phases=1,Linecode=CAB102_3_1,Length=0.024310000,Units=km
new line.TR11278 bus1=BMT7205B.1,bus2=BMT7212B.1,Phases=1,Linecode=CAB102_3_1,Length=0.015290000,Units=km
new line.TR11284106 bus1=BMT155973444.1,bus2=BMT7495707B.1,Phases=1,Linecode=CAB103_3_1,Length=0.023750000,Units=km
new line.TR11284113 bus1=BMT7495707B.1,bus2=BMT277223B.1,Phases=1,Linecode=CAB103_3_1,Length=0.008940000,Units=km
new line.TR11527846 bus1=BMT162779124.1.2.3,bus2=BMT162779125.1.2.3,Phases=3,Linecode=CAB103_3_3,Length=0.020790000,Units=km
new line.TR11527853 bus1=BMT162779125.1.2.3,bus2=BMT162779126.1.2.3,Phases=3,Linecode=CABA06_3_3,Length=0.022190000,Units=km
new line.TR11544 bus1=BMT7345B.1.2.3,bus2=BMT155973502.1.2.3,Phases=3,Linecode=CAB103_3_3,Length=0.021570000,Units=km
new line.TR11621 bus1=BMT7380B.1.2.3,bus2=BMT7373B.1.2.3,Phases=3,Linecode=CAB103_3_3,Length=0.015640000,Units=km
new line.TR11625734 bus1=BMT163853385.1.2.3,bus2=BMT7825715B.1.2.3,Phases=3,Linecode=CABA06_3_3,Length=0.021530000,Units=km
new line.TR11625741 bus1=BMT7825715B.1.2.3,bus2=BMT7708136B.1.2.3,Phases=3,Linecode=CABA06_3_3,Length=0.019300000,Units=km
new line.TR11635 bus1=BMT7387B.1.2.3,bus2=BMT7380B.1.2.3,Phases=3,Linecode=CAB103_3_3,Length=0.025920000,Units=km
new line.TR1177 bus1=BMT1045B.1,bus2=BMT1031B.1,Phases=1,Linecode=CAB102_3_1,Length=0.042030000,Units=km
new line.TR11852 bus1=BMT165653296.1.2.3,bus2=BMT165653297.1.2.3,Phases=3,Linecode=CAB103_3_3,Length=0.013030000,Units=km
new line.TR11887 bus1=BMT7583B.1.2.3,bus2=BMT7597B.1.2.3,Phases=3,Linecode=CAB103_3_3,Length=0.023520000,Units=km
new line.TR12104 bus1=BMT155973627.1,bus2=BMT7779B.1,Phases=1,Linecode=CAB102_3_1,Length=0.017790000,Units=km
new line.TR12106942 bus1=BMT137818739.1.2.3,bus2=BMT20862B.1.2.3,Phases=3,Linecode=CABA08_3_3,Length=0.040980000,Units=km
new line.TR12111 bus1=BMT7772B.3,bus2=BMT7828B.3,Phases=1,Linecode=CAB102_3_1,Length=0.029050000,Units=km
new line.TR12247203 bus1=BMT2284B.1.2.3,bus2=BMT169584742.1.2.3,Phases=3,Linecode=CAB103_3_3,Length=0.011390000,Units=km
new line.TR12247204 bus1=BMT169584742.1.2.3,bus2=BMT2277B.1.2.3,Phases=3,Linecode=CAB103_3_3,Length=0.011390000,Units=km
new line.TR12249181 bus1=BMT159905343.1.2.3,bus2=BMT8850653B.1.2.3,Phases=3,Linecode=CABA06_3_3,Length=0.010810000,Units=km
new line.TR12249182 bus1=BMT8850653B.1.2.3,bus2=BMT199586B.1.2.3,Phases=3,Linecode=CABA06_3_3,Length=0.029510000,Units=km
new line.TR12286 bus1=BMT165219215.1.2.3,bus2=BMT165219216.1.2.3,Phases=3,Linecode=CAB103_3_3,Length=0.015220000,Units=km
new line.TR12286164 bus1=BMT3691B.1.2.3,bus2=BMT155973413.1.2.3,Phases=3,Linecode=CAB103_3_3,Length=0.015550000,Units=km
new line.TR12286165 bus1=BMT155973413.1.2.3,bus2=BMT155973414.1.2.3,Phases=3,Linecode=CAB103_3_3,Length=0.019090000,Units=km
new line.TR12286541 bus1=BMT155973467.1.2.3,bus2=BMT155973468.1.2.3,Phases=3,Linecode=CAB901_4_3,Length=0.016270000,Units=km
new line.TR1247 bus1=BMT155973473.1,bus2=BMT155973477.1,Phases=1,Linecode=CAB102_3_1,Length=0.019710000,Units=km
new line.TR12507481 bus1=BMT15759B.1.2.3,bus2=BMT9116333B.1.2.3,Phases=3,Linecode=CABA06_3_3,Length=0.035100000,Units=km
new line.TR12507483 bus1=BMT9116333B.1.2.3,bus2=BMT9116339B.1.2.3,Phases=3,Linecode=CABA06_3_3,Length=0.039820000,Units=km
new line.TR12507485 bus1=BMT9116339B.1.2.3,bus2=BMT9116343B.1.2.3,Phases=3,Linecode=CABA06_3_3,Length=0.025160000,Units=km
new line.TR12507488 bus1=BMT9116343B.1.2.3,bus2=BMT9116345B.1.2.3,Phases=3,Linecode=CABA06_3_3,Length=0.032990000,Units=km
new line.TR12507494 bus1=BMT9116345B.1.2.3,bus2=BMT9116353B.1.2.3,Phases=3,Linecode=CABA06_3_3,Length=0.036990000,Units=km
new line.TR12507495 bus1=BMT9116353B.1.2.3,bus2=BMT9116359B.1.2.3,Phases=3,Linecode=CABA06_3_3,Length=0.040020000,Units=km
new line.TR12507496 bus1=BMT9116359B.1.2.3,bus2=BMT165333399.1.2.3,Phases=3,Linecode=CABA06_3_3,Length=0.050010000,Units=km
new line.TR12507500 bus1=BMT165333399.1.2.3,bus2=BMT165333400.1.2.3,Phases=3,Linecode=CABA06_3_3,Length=0.016270000,Units=km
new line.TR12507522 bus1=BMT165333399.1.2.3,bus2=BMT165333401.1.2.3,Phases=3,Linecode=CABA06_3_3,Length=0.031120000,Units=km
new line.TR12507705 bus1=BMT165333401.1.2.3,bus2=BMT9116514B.1.2.3,Phases=3,Linecode=CABA06_3_3,Length=0.035580000,Units=km
new line.TR12507707 bus1=BMT9116514B.1.2.3,bus2=BMT9116519B.1.2.3,Phases=3,Linecode=CABA06_3_3,Length=0.035440000,Units=km
new line.TR12507711 bus1=BMT9116519B.1.2.3,bus2=BMT9116525B.1.2.3,Phases=3,Linecode=CABA06_3_3,Length=0.036850000,Units=km
new line.TR12507712 bus1=BMT9116525B.1.2.3,bus2=BMT9116532B.1.2.3,Phases=3,Linecode=CABA06_3_3,Length=0.034180000,Units=km
new line.TR12507713 bus1=BMT9116532B.1.2.3,bus2=BMT9116534B.1.2.3,Phases=3,Linecode=CABA06_3_3,Length=0.032630000,Units=km
new line.TR12507716 bus1=BMT9116534B.1.2.3,bus2=BMT165333402.1.2.3,Phases=3,Linecode=CABA06_3_3,Length=0.016630000,Units=km
new line.TR12507718 bus1=BMT165333402.1.2.3,bus2=BMT162808488.1.2.3,Phases=3,Linecode=CABA06_3_3,Length=0.012360000,Units=km
new line.TR12507719 bus1=BMT165347559.1.2.3,bus2=BMT165347560.1.2.3,Phases=3,Linecode=CABA06_3_3,Length=0.030250000,Units=km
new line.TR12507720 bus1=BMT165347560.1.2.3,bus2=BMT9116577B.1.2.3,Phases=3,Linecode=CABA06_3_3,Length=0.030250000,Units=km
new line.TR12507721 bus1=BMT9116577B.1.2.3,bus2=BMT9116581B.1.2.3,Phases=3,Linecode=CABA06_3_3,Length=0.036200000,Units=km
new line.TR12507727 bus1=BMT9116581B.1.2.3,bus2=BMT9116589B.1.2.3,Phases=3,Linecode=CABA06_3_3,Length=0.035200000,Units=km
new line.TR12507728 bus1=BMT9116589B.1.2.3,bus2=BMT9116587B.1.2.3,Phases=3,Linecode=CABA06_3_3,Length=0.036200000,Units=km
new line.TR12507733 bus1=BMT9116587B.1.2.3,bus2=BMT9116585B.1.2.3,Phases=3,Linecode=CABA06_3_3,Length=0.032370000,Units=km
new line.TR12507734 bus1=BMT9116585B.1.2.3,bus2=BMT9116591B.1.2.3,Phases=3,Linecode=CABA06_3_3,Length=0.046620000,Units=km
new line.TR12507749 bus1=BMT9116591B.1.2.3,bus2=BMT9116594B.1.2.3,Phases=3,Linecode=CABA06_3_3,Length=0.035030000,Units=km
new line.TR12507753 bus1=BMT9116594B.1.2.3,bus2=BMT165347561.1.2.3,Phases=3,Linecode=CABA06_3_3,Length=0.036380000,Units=km
new line.TR12507783 bus1=BMT165333402.1.2.3,bus2=BMT9116632B.1.2.3,Phases=3,Linecode=CABA06_3_3,Length=0.021200000,Units=km
new line.TR12507788 bus1=BMT9116632B.1.2.3,bus2=BMT162808830.1.2.3,Phases=3,Linecode=CABA06_3_3,Length=0.037620000,Units=km
new line.TR12507791 bus1=BMT165348035.1.2.3,bus2=BMT9116642B.1.2.3,Phases=3,Linecode=CABA06_3_3,Length=0.037460000,Units=km
new line.TR12507792 bus1=BMT9116642B.1.2.3,bus2=BMT9116625B.1.2.3,Phases=3,Linecode=CABA06_3_3,Length=0.037510000,Units=km
new line.TR12507793 bus1=BMT9116625B.1.2.3,bus2=BMT165348036.1.2.3,Phases=3,Linecode=CABA06_3_3,Length=0.021200000,Units=km
new line.TR12508647 bus1=BMT165348036.1.2.3,bus2=BMT9117487B.1.2.3,Phases=3,Linecode=CABA06_3_3,Length=0.015120000,Units=km
new line.TR12508648 bus1=BMT9117487B.1.2.3,bus2=BMT9117489B.1.2.3,Phases=3,Linecode=CABA06_3_3,Length=0.043800000,Units=km
new line.TR12508650 bus1=BMT9117489B.1.2.3,bus2=BMT165348037.1.2.3,Phases=3,Linecode=CABA06_3_3,Length=0.024070000,Units=km
new line.TR12508651 bus1=BMT165348036.1.2.3,bus2=BMT9116628B.1.2.3,Phases=3,Linecode=CABA06_3_3,Length=0.011310000,Units=km
new line.TR12508652 bus1=BMT9116628B.1.2.3,bus2=BMT9117475B.1.2.3,Phases=3,Linecode=CABA06_3_3,Length=0.016270000,Units=km
new line.TR12508654 bus1=BMT9117475B.1.2.3,bus2=BMT162806760.1.2.3,Phases=3,Linecode=CABA06_3_3,Length=0.025440000,Units=km
new line.TR12508655 bus1=BMT165346768.1.2.3,bus2=BMT165346769.1.2.3,Phases=3,Linecode=CABA06_3_3,Length=0.025480000,Units=km
new line.TR12508658 bus1=BMT165346769.1.2.3,bus2=BMT165346770.1.2.3,Phases=3,Linecode=CABA06_3_3,Length=0.036040000,Units=km
new line.TR12508660 bus1=BMT165346769.1.2.3,bus2=BMT9117534B.1.2.3,Phases=3,Linecode=CABA06_3_3,Length=0.033580000,Units=km
new line.TR12508661 bus1=BMT9117534B.1.2.3,bus2=BMT9117535B.1.2.3,Phases=3,Linecode=CABA06_3_3,Length=0.035360000,Units=km
new line.TR12508662 bus1=BMT9117535B.1.2.3,bus2=BMT9117532B.1.2.3,Phases=3,Linecode=CABA06_3_3,Length=0.034630000,Units=km
new line.TR12508663 bus1=BMT9117532B.1.2.3,bus2=BMT9117525B.1.2.3,Phases=3,Linecode=CABA06_3_3,Length=0.041740000,Units=km
new line.TR12508664 bus1=BMT9117525B.1.2.3,bus2=BMT9117526B.1.2.3,Phases=3,Linecode=CABA06_3_3,Length=0.028980000,Units=km
new line.TR12508666 bus1=BMT9117526B.1.2.3,bus2=BMT165346771.1.2.3,Phases=3,Linecode=CABA06_3_3,Length=0.026890000,Units=km
new line.TR12508668 bus1=BMT165346771.1.2.3,bus2=BMT165346772.1.2.3,Phases=3,Linecode=CABA06_3_3,Length=0.028270000,Units=km
new line.TR12508839 bus1=BMT165346771.1.2.3,bus2=BMT9117769B.1.2.3,Phases=3,Linecode=CABA06_3_3,Length=0.027570000,Units=km
new line.TR12508840 bus1=BMT9117769B.1.2.3,bus2=BMT9117770B.1.2.3,Phases=3,Linecode=CABA06_3_3,Length=0.037080000,Units=km
new line.TR12508841 bus1=BMT9117770B.1.2.3,bus2=BMT9117771B.1.2.3,Phases=3,Linecode=CABA06_3_3,Length=0.036660000,Units=km
new line.TR12508844 bus1=BMT9117771B.1.2.3,bus2=BMT9117779B.1.2.3,Phases=3,Linecode=CABA06_3_3,Length=0.036380000,Units=km
new line.TR12508851 bus1=BMT9117779B.1.2.3,bus2=BMT9117781B.1.2.3,Phases=3,Linecode=CABA06_3_3,Length=0.038870000,Units=km
new line.TR12508855 bus1=BMT9117781B.1.2.3,bus2=BMT9117775D.1.2.3,Phases=3,Linecode=CABA06_3_3,Length=0.050930000,Units=km
new line.TR12508856 bus1=BMT9117775D.1.2.3,bus2=BMT9117777D.1.2.3,Phases=3,Linecode=CABA06_3_3,Length=0.042690000,Units=km
new line.TR12508860 bus1=BMT9117777D.1.2.3,bus2=BMT9117788D.1.2.3,Phases=3,Linecode=CABA06_3_3,Length=0.042160000,Units=km
new line.TR12508861 bus1=BMT9117788D.1.2.3,bus2=BMT165346773.1.2.3,Phases=3,Linecode=CABA06_3_3,Length=0.032730000,Units=km
new line.TR1296 bus1=BMT1087B.1.2.3,bus2=BMT1080B.1.2.3,Phases=3,Linecode=CAB103_3_3,Length=0.038570000,Units=km
new line.TR13511 bus1=BMT8626B.1.2.3,bus2=BMT8619B.1.2.3,Phases=3,Linecode=CAB106_3_3,Length=0.025280000,Units=km
new line.TR13518 bus1=BMT167274373.1.2.3,bus2=BMT8626B.1.2.3,Phases=3,Linecode=CAB106_3_3,Length=0.015800000,Units=km
new line.TR1352 bus1=BMT169323416.1,bus2=BMT1143B.1,Phases=1,Linecode=CAB103_3_1,Length=0.033580000,Units=km
new line.TR13546 bus1=BMT8640B.1,bus2=BMT8654B.1,Phases=1,Linecode=CAB102_3_1,Length=0.036660000,Units=km
new line.TR13567 bus1=BMT8647B.1,bus2=BMT8640B.1,Phases=1,Linecode=CAB102_3_1,Length=0.036650000,Units=km
new line.TR13581 bus1=BMT8654B.1,bus2=BMT9172B.1,Phases=1,Linecode=CAB102_3_1,Length=0.033580000,Units=km
new line.TR1359 bus1=BMT1143B.1,bus2=BMT169323419.1,Phases=1,Linecode=CAB103_3_1,Length=0.024820000,Units=km
new line.TR13595 bus1=BMT155973639.1,bus2=BMT8647B.1,Phases=1,Linecode=CAB102_3_1,Length=0.030060000,Units=km
new line.TR13623 bus1=BMT8668B.1,bus2=BMT155973639.1,Phases=1,Linecode=CAB102_3_1,Length=0.035200000,Units=km
new line.TR14673 bus1=BMT9291B.1,bus2=BMT9284B.1,Phases=1,Linecode=CAB102_3_1,Length=0.016990000,Units=km
new line.TR14687 bus1=BMT155973638.1,bus2=BMT9291B.1,Phases=1,Linecode=CAB102_3_1,Length=0.034960000,Units=km
new line.TR1471 bus1=BMT169323417.1,bus2=BMT1213B.1,Phases=1,Linecode=CAB103_3_1,Length=0.029050000,Units=km
new line.TR14715 bus1=BMT9305B.1,bus2=BMT155973638.1,Phases=1,Linecode=CAB102_3_1,Length=0.030390000,Units=km
new line.TR1506 bus1=BMT1213B.1,bus2=BMT1220B.1,Phases=1,Linecode=CAB103_3_1,Length=0.022810000,Units=km
new line.TR1520 bus1=BMT1220B.1,bus2=BMT256601B.1,Phases=1,Linecode=CAB103_3_1,Length=0.032670000,Units=km
new line.TR15233 bus1=BMT9585B.1.2.3,bus2=BMT155973739.1.2.3,Phases=3,Linecode=CABA06_3_3,Length=0.013590000,Units=km
new line.TR15247 bus1=BMT9592B.1.2.3,bus2=BMT9634B.1.2.3,Phases=3,Linecode=CABA06_3_3,Length=0.032550000,Units=km
new line.TR16024 bus1=BMT161978103.1.2.3,bus2=BMT155973391.1.2.3,Phases=3,Linecode=CAB106_3_3,Length=0.025610000,Units=km
new line.TR1604 bus1=BMT155973429.1,bus2=BMT155973431.1,Phases=1,Linecode=CAB102_3_1,Length=0.029710000,Units=km
new line.TR16045 bus1=BMT9942B.1.2.3,bus2=BMT161978103.1.2.3,Phases=3,Linecode=CAB106_3_3,Length=0.023070000,Units=km
new line.TR16297 bus1=BMT10145B.1.2.3,bus2=BMT155973387.1.2.3,Phases=3,Linecode=CAB106_3_3,Length=0.024980000,Units=km
new line.TR16311 bus1=BMT10152B.1.2.3,bus2=BMT10145B.1.2.3,Phases=3,Linecode=CAB106_3_3,Length=0.022120000,Units=km
new line.TR1632 bus1=BMT1304B.1.2.3,bus2=BMT155973427.1.2.3,Phases=3,Linecode=CAB102_3_3,Length=0.028160000,Units=km
new line.TR16626 bus1=BMT10411B.1.2.3,bus2=BMT54448B.1.2.3,Phases=3,Linecode=CAB103_3_3,Length=0.039330000,Units=km
new line.TR16633 bus1=BMT155973743.1.2.3,bus2=BMT155973744.1.2.3,Phases=3,Linecode=CAB102_3_3,Length=0.015800000,Units=km
new line.TR10641 bus1=BMT6848B.1.2.3,bus2=BMT6841B.1.2.3,Phases=3,Linecode=CAB103_3_3,Length=0.020800000,Units=km
new line.TR10655 bus1=BMT6855B.1.2.3,bus2=BMT6848B.1.2.3,Phases=3,Linecode=CAB103_3_3,Length=0.027280000,Units=km
new line.TR11146500 bus1=BMT157359868.1.2.3,bus2=BMT7369035B.1.2.3,Phases=3,Linecode=CAB108_3_3,Length=0.010990000,Units=km
new line.TR11146507 bus1=BMT7369035B.1.2.3,bus2=BMT157359869.1.2.3,Phases=3,Linecode=CAB108_3_3,Length=0.010040000,Units=km
new line.TR11465084 bus1=BMT7667179B.1.2.3,bus2=BMT7667186B.1.2.3,Phases=3,Linecode=CABA06_3_3,Length=0.029140000,Units=km
new line.TR11465091 bus1=BMT7667186B.1.2.3,bus2=BMT7667193B.1.2.3,Phases=3,Linecode=CABA06_3_3,Length=0.030050000,Units=km
new line.TR11465098 bus1=BMT7667193B.1.2.3,bus2=BMT7667200B.1.2.3,Phases=3,Linecode=CABA06_3_3,Length=0.031870000,Units=km
new line.TR11465105 bus1=BMT7667200B.1.2.3,bus2=BMT7667214B.1.2.3,Phases=3,Linecode=CABA06_3_3,Length=0.023010000,Units=km
new line.TR11465147 bus1=BMT7667214B.1.2.3,bus2=BMT7667228B.1.2.3,Phases=3,Linecode=CABA06_3_3,Length=0.019220000,Units=km
new line.TR11465280 bus1=BMT7667228B.1.2.3,bus2=BMT10537B.1.2.3,Phases=3,Linecode=CABA06_3_3,Length=0.019300000,Units=km
new line.TR11465294 bus1=BMT155973719.1.2.3,bus2=BMT155973541.1.2.3,Phases=3,Linecode=CABA06_3_3,Length=0.031120000,Units=km
new line.TR11465483 bus1=BMT10537B.1.2.3,bus2=BMT162779129.1.2.3,Phases=3,Linecode=CABA06_3_3,Length=0.016540000,Units=km
new line.TR11468213 bus1=BMT162779126.1.2.3,bus2=BMT255201B.1.2.3,Phases=3,Linecode=CABA06_3_3,Length=0.033980000,Units=km
new line.TR11468220 bus1=BMT255201B.1.2.3,bus2=BMT255215B.1.2.3,Phases=3,Linecode=CABA06_3_3,Length=0.030000000,Units=km
new line.TR11468227 bus1=BMT255215B.1.2.3,bus2=BMT7667179B.1.2.3,Phases=3,Linecode=CABA06_3_3,Length=0.073120000,Units=km
new line.TR11474233 bus1=BMT199586B.1.2.3,bus2=BMT7679870B.1.2.3,Phases=3,Linecode=CABA06_3_3,Length=0.019400000,Units=km
new line.TR11474240 bus1=BMT7679870B.1.2.3,bus2=BMT199593B.1.2.3,Phases=3,Linecode=CABA06_3_3,Length=0.014030000,Units=km
new line.TR11474247 bus1=BMT199593B.1.2.3,bus2=BMT159905346.1.2.3,Phases=3,Linecode=CABA06_3_3,Length=0.036990000,Units=km
new line.TR11475087 bus1=BMT7681144B.1.2.3,bus2=BMT255173B.1.2.3,Phases=3,Linecode=CAB103_3_3,Length=0.024500000,Units=km
new line.TR11713528 bus1=BMT155973511.1.2.3,bus2=BMT155973512.1.2.3,Phases=3,Linecode=CAB103_3_3,Length=0.030590000,Units=km
new line.TR11713535 bus1=BMT155973513.1.2.3,bus2=BMT161363269.1.2.3,Phases=3,Linecode=CAB103_3_3,Length=0.026380000,Units=km
new line.TR11719 bus1=BMT7457B.1,bus2=BMT161905212.1,Phases=1,Linecode=CAB103_3_1,Length=0.023390000,Units=km
new line.TR11974313 bus1=BMT155973738.1.2.3,bus2=BMT54462B.1.2.3,Phases=3,Linecode=CABA06_3_3,Length=0.039190000,Units=km
new line.TR11974369 bus1=BMT54462B.1.2.3,bus2=BMT9564B.1.2.3,Phases=3,Linecode=CABA06_3_3,Length=0.033590000,Units=km
new line.TR11974397 bus1=BMT9564B.1.2.3,bus2=BMT9571B.1.2.3,Phases=3,Linecode=CABA06_3_3,Length=0.029810000,Units=km
new line.TR11974411 bus1=BMT9571B.1.2.3,bus2=BMT6344410B.1.2.3,Phases=3,Linecode=CABA06_3_3,Length=0.014550000,Units=km
new line.TR11974418 bus1=BMT6344410B.1.2.3,bus2=BMT9578B.1.2.3,Phases=3,Linecode=CABA06_3_3,Length=0.021010000,Units=km
new line.TR11974425 bus1=BMT9578B.1.2.3,bus2=BMT9585B.1.2.3,Phases=3,Linecode=CABA06_3_3,Length=0.034210000,Units=km
new line.TR11975111 bus1=BMT9655B.1.2.3,bus2=BMT155973742.1.2.3,Phases=3,Linecode=CABA06_3_3,Length=0.028050000,Units=km
...
