CemigDFeeders/CGAU10/CGAU10ChavesMT.dss
new line.CTR206277 bus1=BMT155973586.1.2.3,bus2=BMT4470503.1.2.3,Phases=3,LineCode=tieSwitch,Length=0.001,Units=km,switch=T !numEQ 
open line.CTR206277 term=1
new line.CTR252974 bus1=BMT155973344.1.2.3,bus2=BMT155973760.1.2.3,Phases=3,LineCode=tieSwitch,Length=0.001,Units=km,switch=T !numEQ 
new line.CTR418461 bus1=BMT155973354.1.2.3,bus2=BMT155973757.1.2.3,Phases=3,LineCode=tieSwitch,Length=0.001,Units=km,switch=T !numEQ 
new line.CTR418475 bus1=BMT155973737.1.2.3,bus2=BMT155973743.1.2.3,Phases=3,LineCode=tieSwitch,Length=0.001,Units=km,switch=T !numEQ 
new line.CTR418482 bus1=BMT155973381.1.2.3,bus2=BMT155973382.1.2.3,Phases=3,LineCode=tieSwitch,Length=0.001,Units=km,switch=T !numEQ 
new line.CTR418489 bus1=BMT155973504.1.2.3,bus2=BMT164934443.1.2.3,Phases=3,LineCode=tieSwitch,Length=0.001,Units=km,switch=T !numEQ 
new line.CTR418496 bus1=BMT155973572.1.2.3,bus2=BMT165448738.1.2.3,Phases=3,LineCode=tieSwitch,Length=0.001,Units=km,switch=T !numEQ 
new line.CTR418503 bus1=BMT161060116.1.2.3,bus2=BMT155973409.1.2.3,Phases=3,LineCode=tieSwitch,Length=0.001,Units=km,switch=T !numEQ 
new line.CTR419014 bus1=BMT155973626.3,bus2=BMT169918159.3,Phases=1,LineCode=tieSwitch1,Length=0.001,Units=km,switch=T !numEQ 
new line.CTR419602 bus1=BMT155973421.1.2.3,bus2=BMT155973422.1.2.3,Phases=3,LineCode=tieSwitch,Length=0.001,Units=km,switch=T !numEQ 
new line.CTR563977 bus1=BMT157359873.1.2.3,bus2=BMT155973337.1.2.3,Phases=3,LineCode=tieSwitch,Length=0.001,Units=km,switch=T !numEQ 
new line.CTR801662 bus1=BMT155973512.1.2.3,bus2=BMT155973513.1.2.3,Phases=3,LineCode=tieSwitch,Length=0.001,Units=km,switch=T !numEQ 
! manobra abrir 300623
open line.CTR801662 term=1
new line.CTR878850 bus1=BMT158542296.1.2.3,bus2=BMT158542299.1.2.3,Phases=3,LineCode=tieSwitch,Length=0.001,Units=km,switch=T !numEQ 
new line.CTR232506 bus1=BMT155973431.1,bus2=BMT155973432.1,Phases=1,LineCode=tieSwitch1,Length=0.001,Units=km,switch=T !numEQ 
new line.CTR250587 bus1=BMT155973362.1.2.3,bus2=BMT155973698.1.2.3,Phases=3,LineCode=tieSwitch,Length=0.001,Units=km,switch=T !numEQ 
new line.CTR313454 bus1=BMT155973637.1,bus2=BMT155973641.1,Phases=1,LineCode=tieSwitch1,Length=0.001,Units=km,switch=T !numEQ 
new line.CTR352822 bus1=BMT155973434.1,bus2=BMT155973442.1,Phases=1,LineCode=tieSwitch1,Length=0.001,Units=km,switch=T !numEQ 
new line.CTR61657 bus1=BMT155973339.3,bus2=BMT155973765.3,Phases=1,LineCode=tieSwitch1,Length=0.001,Units=km,switch=T !numEQ 
new line.CTR61685 bus1=BMT155973346.1.2.3,bus2=BMT162762486.1.2.3,Phases=3,LineCode=tieSwitch,Length=0.001,Units=km,switch=T !numEQ 
new line.CTR61713 bus1=BMT155973405.1.2.3,bus2=BMT161060114.1.2.3,Phases=3,LineCode=tieSwitch,Length=0.001,Units=km,switch=T !numEQ 
new line.CTR674458 bus1=BMT155973571.1.2.3,bus2=BMT155973613.1.2.3,Phases=3,LineCode=tieSwitch,Length=0.001,Units=km,switch=T !numEQ 
new line.CTR793682 bus1=BMT155973402.1.2.3,bus2=BMT155973403.1.2.3,Phases=3,LineCode=tieSwitch,Length=0.001,Units=km,switch=T !numEQ 
new line.CTR865329 bus1=BMT155973413.1.2.3,bus2=BMT155973467.1.2.3,Phases=3,LineCode=tieSwitch,Length=0.001,Units=km,switch=T !numEQ 
new line.CTR880546 bus1=BMT159076409.1.2.3,bus2=BMT160284292.1.2.3,Phases=3,LineCode=tieSwitch,Length=0.001,Units=km,switch=T !numEQ 
new line.CTR413106 bus1=BMT155973417.1.2.3,bus2=BMT169584739.1.2.3,Phases=3,LineCode=tieSwitch,Length=0.001,Units=km,switch=T !numEQ 
new line.CTR416291 bus1=BMT155973327.1.2.3,bus2=BMT157359868.1.2.3,Phases=3,LineCode=tieSwitch,Length=0.001,Units=km,switch=T !numEQ 
new line.CTR488027 bus1=BMT155973552.1.2.3,bus2=BMT155973554.1.2.3,Phases=3,LineCode=tieSwitch,Length=0.001,Units=km,switch=T !numEQ 
new line.CTR488034 bus1=BMT155973555.1.2.3,bus2=BMT155973556.1.2.3,Phases=3,LineCode=tieSwitch,Length=0.001,Units=km,switch=T !numEQ 
new line.CTR60481 bus1=BMT155973729.1.2.3,bus2=BMT155973730.1.2.3,Phases=3,LineCode=tieSwitch,Length=0.001,Units=km,switch=T !numEQ 
new line.CTR66417 bus1=BMT155973352.1.2.3,bus2=BMT160306850.1.2.3,Phases=3,LineCode=tieSwitch,Length=0.001,Units=km,switch=T !numEQ 
new line.CTR66445 bus1=BMT155973361.1.2.3,bus2=BMT160306858.1.2.3,Phases=3,LineCode=tieSwitch,Length=0.001,Units=km,switch=T !numEQ 
new line.CTR66466 bus1=BMT155973702.1.2.3,bus2=BMT158051493.1.2.3,Phases=3,LineCode=tieSwitch,Length=0.001,Units=km,switch=T !numEQ 
new line.CTR66494 bus1=BMT155973727.1.2.3,bus2=BMT155973745.1.2.3,Phases=3,LineCode=tieSwitch,Length=0.001,Units=km,switch=T !numEQ 
new line.CTR706826 bus1=BMT165448742.1.2.3,bus2=BMT165448072.1.2.3,Phases=3,LineCode=tieSwitch,Length=0.001,Units=km,switch=T !numEQ 
open line.CTR706826 term=1
new line.CTR71023 bus1=BMT155973397.1.2.3,bus2=BMT165225354.1.2.3,Phases=3,LineCode=tieSwitch,Length=0.001,Units=km,switch=T !numEQ 
new line.CTR760908 bus1=BMT165448743.1.2.3,bus2=BMT155973579.1.2.3,Phases=3,LineCode=tieSwitch,Length=0.001,Units=km,switch=T !numEQ 
new line.CTR782447 bus1=BMT155973714.1.2.3,bus2=BMT162779122.1.2.3,Phases=3,LineCode=tieSwitch,Length=0.001,Units=km,switch=T !numEQ 
new line.CTR847009 bus1=BMT155973501.1.2.3,bus2=BMT165653295.1.2.3,Phases=3,LineCode=tieSwitch,Length=0.001,Units=km,switch=T !numEQ 
new line.CTRR17361 bus1=BMT155973497.1.2.3,bus2=BMT165219215.1.2.3,Phases=3,LineCode=tieSwitch,Length=0.001,Units=km,switch=T !numEQ 
new line.CTR574680 bus1=BMT161978101.1.2.3,bus2=BMT3381786.1.2.3,Phases=3,LineCode=tieSwitch,Length=0.001,Units=km,switch=T !numEQ 
open line.CTR574680 term=1
new line.CTR62385 bus1=BMT155973628.1,bus2=BMT155973630.1,Phases=1,LineCode=tieSwitch1,Length=0.001,Units=km,switch=T !numEQ 
new line.CTR172425 bus1=BMT155973520.1.2.3,bus2=BMT166036725.1.2.3,Phases=3,LineCode=tieSwitch,Length=0.001,Units=km,switch=T !numEQ 
new line.CTR255298 bus1=BMT155973657.2,bus2=BMT164214700.2,Phases=1,LineCode=tieSwitch1,Length=0.001,Units=km,switch=T !numEQ 
new line.CTR63183 bus1=BMT155973477.1,bus2=BMT155973478.1,Phases=1,LineCode=tieSwitch1,Length=0.001,Units=km,switch=T !numEQ 
new line.CTR889289 bus1=BMT162762487.1.2.3,bus2=BMT165333395.1.2.3,Phases=3,LineCode=tieSwitch,Length=0.001,Units=km,switch=T !numEQ 
new line.CTR889421 bus1=BMT162806760.1.2.3,bus2=BMT165346768.1.2.3,Phases=3,LineCode=tieSwitch,Length=0.001,Units=km,switch=T !numEQ 
new line.CTR889428 bus1=BMT162808488.1.2.3,bus2=BMT165347559.1.2.3,Phases=3,LineCode=tieSwitch,Length=0.001,Units=km,switch=T !numEQ 
new line.CTR889430 bus1=BMT162808830.1.2.3,bus2=BMT165348035.1.2.3,Phases=3,LineCode=tieSwitch,Length=0.001,Units=km,switch=T !numEQ 
new line.CTR135703 bus1=BMT158576874.1.2.3,bus2=BMT158576875.1.2.3,Phases=3,LineCode=tieSwitch,Length=0.001,Units=km,switch=T !numEQ 
new line.CTR248543 bus1=BMT155973658.1,bus2=BMT156364224.1,Phases=1,LineCode=tieSwitch1,Length=0.001,Units=km,switch=T !numEQ 
new line.CTR248571 bus1=BMT155973661.2,bus2=BMT155973676.2,Phases=1,LineCode=tieSwitch1,Length=0.001,Units=km,switch=T !numEQ 
new line.CTR249061 bus1=BMT155973401.1.2.3,bus2=BMT155973491.1.2.3,Phases=3,LineCode=tieSwitch,Length=0.001,Units=km,switch=T !numEQ 
new line.CTR249075 bus1=BMT155973505.1.2.3,bus2=BMT155973618.1.2.3,Phases=3,LineCode=tieSwitch,Length=0.001,Units=km,switch=T !numEQ 
new line.CTR249089 bus1=BMT155973509.1.2.3,bus2=BMT155973510.1.2.3,Phases=3,LineCode=tieSwitch,Length=0.001,Units=km,switch=T !numEQ 
new line.CTR249103 bus1=BMT155973410.1.2.3,bus2=BMT155973469.1.2.3,Phases=3,LineCode=tieSwitch,Length=0.001,Units=km,switch=T !numEQ 
new line.CTR421863 bus1=BMT155973476.1.2.3,bus2=BMT155973483.1.2.3,Phases=3,LineCode=tieSwitch,Length=0.001,Units=km,switch=T !numEQ 
new line.CTR422129 bus1=BMT165400382.1.2.3,bus2=BMT155973373.1.2.3,Phases=3,LineCode=tieSwitch,Length=0.001,Units=km,switch=T !numEQ 
open line.CTR422129 term=1
new line.CTR422689 bus1=BMT155973342.1.2.3,bus2=BMT155973343.1.2.3,Phases=3,LineCode=tieSwitch,Length=0.001,Units=km,switch=T !numEQ 
new line.CTR423949 bus1=BMT155973502.1.2.3,bus2=BMT155973503.1.2.3,Phases=3,LineCode=tieSwitch,Length=0.001,Units=km,switch=T !numEQ 
new line.CTR424180 bus1=BMT155973332.1.2.3,bus2=BMT168959278.1.2.3,Phases=3,LineCode=tieSwitch,Length=0.001,Units=km,switch=T !numEQ 
new line.CTR424201 bus1=BMT155973418.1.2.3,bus2=BMT2704074.1.2.3,Phases=3,LineCode=tieSwitch,Length=0.001,Units=km,switch=T !numEQ 
open line.CTR424201 term=1
new line.CTR69231 bus1=BMT155973474.1.2.3,bus2=BMT155973489.1.2.3,Phases=3,LineCode=tieSwitch,Length=0.001,Units=km,switch=T !numEQ 
new line.CTR901916 bus1=BMT167274378.1.2.3,bus2=BMT167274379.1.2.3,Phases=3,LineCode=tieSwitch,Length=0.001,Units=km,switch=T !numEQ 
new line.CTRR36323 bus1=BMT159783302.1.2.3,bus2=BMT160306781.1.2.3,Phases=3,LineCode=tieSwitch,Length=0.001,Units=km,switch=T !numEQ 
new line.CTRR36779 bus1=BMT161060118.1.2.3,bus2=BMT3619653.1.2.3,Phases=3,LineCode=tieSwitch,Length=0.001,Units=km,switch=T !numEQ 
open line.CTRR36779 term=1
new line.CTRR37154 bus1=BMT155973391.1.2.3,bus2=BMT167274372.1.2.3,Phases=3,LineCode=tieSwitch,Length=0.001,Units=km,switch=T !numEQ 
new line.CTRR37233 bus1=BMT155973521.1.2.3,bus2=BMT159905339.1.2.3,Phases=3,LineCode=tieSwitch,Length=0.001,Units=km,switch=T !numEQ 
new line.CTRR37329 bus1=BMT162779129.1.2.3,bus2=BMT155973541.1.2.3,Phases=3,LineCode=tieSwitch,Length=0.001,Units=km,switch=T !numEQ 
! manobra fechar 293937
! open line.CTRR37329 term=1
new line.CTR242474 bus1=BMT155973529.1.2.3,bus2=BMT155973558.1.2.3,Phases=3,LineCode=tieSwitch,Length=0.001,Units=km,switch=T !numEQ 
new line.CTR242558 bus1=BMT155973365.1.2.3,bus2=BMT165400371.1.2.3,Phases=3,LineCode=tieSwitch,Length=0.001,Units=km,switch=T !numEQ 
new line.CTR242572 bus1=BMT155973360.1.2.3,bus2=BMT163998514.1.2.3,Phases=3,LineCode=tieSwitch,Length=0.001,Units=km,switch=T !numEQ 
new line.CTR242586 bus1=BMT155973664.3,bus2=BMT155973670.3,Phases=1,LineCode=tieSwitch1,Length=0.001,Units=km,switch=T !numEQ 
new line.CTR243629 bus1=BMT155973635.1,bus2=BMT161905210.1,Phases=1,LineCode=tieSwitch1,Length=0.001,Units=km,switch=T !numEQ 
new line.CTR450269 bus1=BMT155973715.1.2.3,bus2=BMT155973716.1.2.3,Phases=3,LineCode=tieSwitch,Length=0.001,Units=km,switch=T !numEQ 
new line.CTR451592 bus1=BMT155973524.3,bus2=BMT155973561.3,Phases=1,LineCode=tieSwitch1,Length=0.001,Units=km,switch=T !numEQ 
new line.CTR654998 bus1=BMT155973387.1.2.3,bus2=BMT155973696.1.2.3,Phases=3,LineCode=tieSwitch,Length=0.001,Units=km,switch=T !numEQ 
new line.CTR773830 bus1=BMT155973719.1.2.3,bus2=BMT155973720.1.2.3,Phases=3,LineCode=tieSwitch,Length=0.001,Units=km,switch=T !numEQ 
new line.CTR776686 bus1=BMT155973530.1.2.3,bus2=BMT162779123.1.2.3,Phases=3,LineCode=tieSwitch,Length=0.001,Units=km,switch=T !numEQ 
new line.CTR777876 bus1=BMT155973582.1.2.3,bus2=BMT163853380.1.2.3,Phases=3,LineCode=tieSwitch,Length=0.001,Units=km,switch=T !numEQ 
new line.CTR845432 bus1=BMT155973338.1.2.3,bus2=BMT155973768.1.2.3,Phases=3,LineCode=tieSwitch,Length=0.001,Units=km,switch=T !numEQ 
