CemigDFeeders/CGAU10/CGAU10Transformadores.dss
new transformer.1122 Phases=3,Windings=2,Buses=[BMT166036729.1.2.3 BBT4629.1.2.3.0],Conns=[delta wye],kvs=[13.8 0.22],kvas=[100.000000000 100.000000000],Taps=[1,1.000000000],%loadloss=1.218000000,%noloadloss=0.335000000
new transformer.1157 Phases=3,Windings=2,Buses=[BMT155973414.1.2.3 BBT4923.1.2.3.0],Conns=[delta wye],kvs=[13.8 0.22],kvas=[100.000000000 100.000000000],Taps=[1,1.000000000],%loadloss=1.218000000,%noloadloss=0.335000000
new transformer.1185 Phases=1,Windings=3,Buses=[BMT156364226.1 BBT5154.1.0 BBT5154.0.2],Conns=[wye wye wye],kvs=[7.967 0.12 0.12],kvas=[35.000000000 35.000000000 35.000000000],Taps=[1,1.000000000,1.000000000],%loadloss=1.293000000,%noloadloss=0.342857000
new transformer.1255 Phases=1,Windings=3,Buses=[BMT155973678.2 BBT5868.1.0 BBT5868.0.2],Conns=[wye wye wye],kvs=[7.967 0.12 0.12],kvas=[25.000000000 25.000000000 25.000000000],Taps=[1,1.000000000,1.000000000],%loadloss=1.420000000,%noloadloss=0.320000000
new transformer.12812 Phases=3,Windings=2,Buses=[BMT155973738.1.2.3 BBT67972.1.2.3.0],Conns=[delta wye],kvs=[13.8 0.22],kvas=[45.000000000 45.000000000],Taps=[1,1.000000000],%loadloss=1.522000000,%noloadloss=0.377777000
new transformer.12994 Phases=3,Windings=2,Buses=[BMT163998518.1.2.3 BBT68539.1.2.3.0],Conns=[delta wye],kvs=[13.8 0.22],kvas=[45.000000000 45.000000000],Taps=[1,1.000000000],%loadloss=1.522000000,%noloadloss=0.377777000
new transformer.1325 Phases=1,Windings=3,Buses=[BMT164214704.2 BBT6694.1.0 BBT6694.0.2],Conns=[wye wye wye],kvs=[7.967 0.12 0.12],kvas=[25.000000000 25.000000000 25.000000000],Taps=[1,1.000000000,1.000000000],%loadloss=1.420000000,%noloadloss=0.320000000
new transformer.132638 Phases=3,Windings=2,Buses=[BMT165448739.1.2.3 BBT394165.1.2.3.0],Conns=[delta wye],kvs=[13.8 0.22],kvas=[45.000000000 45.000000000],Taps=[1,1.000000000],%loadloss=1.522000000,%noloadloss=0.377777000
new transformer.1326397 Phases=3,Windings=2,Buses=[BMT159905346.1.2.3 BBT96272297.1.2.3.0],Conns=[delta wye],kvs=[13.8 0.22],kvas=[30.000000000 30.000000000],Taps=[1,1.000000000],%loadloss=1.667000000,%noloadloss=0.433333000
new transformer.1349861 Phases=1,Windings=3,Buses=[BMT155973511.3 BBT114908229.1.0 BBT114908229.0.2],Conns=[wye wye wye],kvs=[7.967 0.12 0.12],kvas=[5.000000000 5.000000000 5.000000000],Taps=[1,1.000000000,1.000000000],%loadloss=1.900000000,%noloadloss=0.600000000
new transformer.1374 Phases=3,Windings=2,Buses=[BMT155973404.1.2.3 BBT7142.1.2.3.0],Conns=[delta wye],kvs=[13.8 0.22],kvas=[45.000000000 45.000000000],Taps=[1,1.000000000],%loadloss=1.522000000,%noloadloss=0.377777000
new transformer.1392149 Phases=3,Windings=2,Buses=[BMT155973775.1.2.3 BBT148544710.1.2.3.0],Conns=[delta wye],kvs=[13.8 0.22],kvas=[45.000000000 45.000000000],Taps=[1,1.000000000],%loadloss=1.522000000,%noloadloss=0.377777000
new transformer.1392150 Phases=3,Windings=2,Buses=[BMT155973776.1.2.3 BBT148544731.1.2.3.0],Conns=[delta wye],kvs=[13.8 0.22],kvas=[45.000000000 45.000000000],Taps=[1,1.000000000],%loadloss=1.522000000,%noloadloss=0.377777000
new transformer.1392151 Phases=3,Windings=2,Buses=[BMT155973772.1.2.3 BBT148544754.1.2.3.0],Conns=[delta wye],kvs=[13.8 0.22],kvas=[45.000000000 45.000000000],Taps=[1,1.000000000],%loadloss=1.522000000,%noloadloss=0.377777000
new transformer.1392152 Phases=3,Windings=2,Buses=[BMT155973770.1.2.3 BBT148544776.1.2.3.0],Conns=[delta wye],kvs=[13.8 0.22],kvas=[45.000000000 45.000000000],Taps=[1,1.000000000],%loadloss=1.522000000,%noloadloss=0.377777000
new transformer.1392158 Phases=3,Windings=2,Buses=[BMT155973773.1.2.3 BBT148546018.1.2.3.0],Conns=[delta wye],kvs=[13.8 0.22],kvas=[45.000000000 45.000000000],Taps=[1,1.000000000],%loadloss=1.522000000,%noloadloss=0.377777000
new transformer.1486 Phases=3,Windings=2,Buses=[BMT155973506.1.2.3 BBT8409.1.2.3.0],Conns=[delta wye],kvs=[13.8 0.22],kvas=[75.000000000 75.000000000],Taps=[1,1.000000000],%loadloss=1.340000000,%noloadloss=0.340000000
new transformer.1535 Phases=3,Windings=2,Buses=[BMT164934449.1.2.3 BBT8808.1.2.3.0],Conns=[delta wye],kvs=[13.8 0.22],kvas=[30.000000000 30.000000000],Taps=[1,1.000000000],%loadloss=1.667000000,%noloadloss=0.433333000
new transformer.1584 Phases=3,Windings=2,Buses=[BMT165219217.1.2.3 BBT9305.1.2.3.0],Conns=[delta wye],kvs=[13.8 0.22],kvas=[150.000000000 150.000000000],Taps=[1,1.000000000],%loadloss=1.127000000,%noloadloss=0.280000000
new transformer.1640 Phases=3,Windings=2,Buses=[BMT155973627.1.2.3 BBT9816.1.2.3.0],Conns=[delta wye],kvs=[13.8 0.22],kvas=[45.000000000 45.000000000],Taps=[1,1.000000000],%loadloss=1.522000000,%noloadloss=0.377777000
new transformer.1794 Phases=1,Windings=3,Buses=[BMT155973638.1 BBT11510.1.0 BBT11510.0.2],Conns=[wye wye wye],kvs=[7.967 0.12 0.12],kvas=[35.000000000 35.000000000 35.000000000],Taps=[1,1.000000000,1.000000000],%loadloss=1.293000000,%noloadloss=0.342857000
new transformer.2102 Phases=3,Windings=2,Buses=[BMT160306793.1.2.3 BBT14037.1.2.3.0],Conns=[delta wye],kvs=[13.8 0.22],kvas=[75.000000000 75.000000000],Taps=[1,1.000000000],%loadloss=1.340000000,%noloadloss=0.340000000
new transformer.1003 Phases=3,Windings=2,Buses=[BMT155973488.1.2.3 BBT3327.1.2.3.0],Conns=[delta wye],kvs=[13.8 0.22],kvas=[45.000000000 45.000000000],Taps=[1,1.000000000],%loadloss=1.522000000,%noloadloss=0.377777000
new transformer.1199 Phases=1,Windings=3,Buses=[BMT164214703.2 BBT5308.1.0 BBT5308.0.2],Conns=[wye wye wye],kvs=[7.967 0.12 0.12],kvas=[35.000000000 35.000000000 35.000000000],Taps=[1,1.000000000,1.000000000],%loadloss=1.293000000,%noloadloss=0.342857000
new transformer.1276 Phases=1,Windings=3,Buses=[BMT164934453.2 BBT6141.1.0 BBT6141.0.2],Conns=[wye wye wye],kvs=[7.967 0.12 0.12],kvas=[15.000000000 15.000000000 15.000000000],Taps=[1,1.000000000,1.000000000],%loadloss=1.600000000,%noloadloss=0.400000000
new transformer.1311 Phases=3,Windings=2,Buses=[BMT161060117.1.2.3 BBT6526.1.2.3.0],Conns=[delta wye],kvs=[13.8 0.22],kvas=[75.000000000 75.000000000],Taps=[1,1.000000000],%loadloss=1.340000000,%noloadloss=0.340000000
new transformer.1448683 Phases=1,Windings=3,Buses=[BMT161363275.1 BBT161363234.1.0 BBT161363234.0.2],Conns=[wye wye wye],kvs=[7.967 0.12 0.12],kvas=[10.000000000 10.000000000 10.000000000],Taps=[1,1.000000000,1.000000000],%loadloss=1.800000000,%noloadloss=0.450000000
new transformer.1453951 Phases=3,Windings=2,Buses=[BMT165333400.1.2.3 BBT162766119.1.2.3.0],Conns=[delta wye],kvs=[13.8 0.22],kvas=[45.000000000 45.000000000],Taps=[1,1.000000000],%loadloss=1.522000000,%noloadloss=0.377777000
new transformer.1453953 Phases=3,Windings=2,Buses=[BMT165333401.1.2.3 BBT162766344.1.2.3.0],Conns=[delta wye],kvs=[13.8 0.22],kvas=[45.000000000 45.000000000],Taps=[1,1.000000000],%loadloss=1.522000000,%noloadloss=0.377777000
new transformer.1453988 Phases=3,Windings=2,Buses=[BMT165347561.1.2.3 BBT162777983.1.2.3.0],Conns=[delta wye],kvs=[13.8 0.22],kvas=[45.000000000 45.000000000],Taps=[1,1.000000000],%loadloss=1.522000000,%noloadloss=0.377777000
new transformer.1453992 Phases=3,Windings=2,Buses=[BMT165347560.1.2.3 BBT162778826.1.2.3.0],Conns=[delta wye],kvs=[13.8 0.22],kvas=[75.000000000 75.000000000],Taps=[1,1.000000000],%loadloss=1.340000000,%noloadloss=0.340000000
new transformer.1454109 Phases=3,Windings=2,Buses=[BMT165346772.1.2.3 BBT162804817.1.2.3.0],Conns=[delta wye],kvs=[13.8 0.22],kvas=[75.000000000 75.000000000],Taps=[1,1.000000000],%loadloss=1.340000000,%noloadloss=0.340000000
new transformer.1454113 Phases=3,Windings=2,Buses=[BMT165346770.1.2.3 BBT162805149.1.2.3.0],Conns=[delta wye],kvs=[13.8 0.22],kvas=[45.000000000 45.000000000],Taps=[1,1.000000000],%loadloss=1.522000000,%noloadloss=0.377777000
new transformer.1454115 Phases=3,Windings=2,Buses=[BMT165348037.1.2.3 BBT162805315.1.2.3.0],Conns=[delta wye],kvs=[13.8 0.22],kvas=[75.000000000 75.000000000],Taps=[1,1.000000000],%loadloss=1.340000000,%noloadloss=0.340000000
new transformer.1454142 Phases=3,Windings=2,Buses=[BMT165346773.1.2.3 BBT162810527.1.2.3.0],Conns=[delta wye],kvs=[13.8 0.22],kvas=[45.000000000 45.000000000],Taps=[1,1.000000000],%loadloss=1.522000000,%noloadloss=0.377777000
new transformer.1464462 Phases=3,Windings=2,Buses=[BMT165653296.1.2.3 BBT165220177.1.2.3.0],Conns=[delta wye],kvs=[13.8 0.22],kvas=[45.000000000 45.000000000],Taps=[1,1.000000000],%loadloss=1.522000000,%noloadloss=0.377777000
new transformer.1479 Phases=3,Windings=2,Buses=[BMT164934448.1.2.3 BBT8395.1.2.3.0],Conns=[delta wye],kvs=[13.8 0.22],kvas=[30.000000000 30.000000000],Taps=[1,1.000000000],%loadloss=1.667000000,%noloadloss=0.433333000
new transformer.1521 Phases=3,Windings=2,Buses=[BMT155973629.1.2.3 BBT8619.1.2.3.0],Conns=[delta wye],kvs=[13.8 0.22],kvas=[75.000000000 75.000000000],Taps=[1,1.000000000],%loadloss=1.340000000,%noloadloss=0.340000000
new transformer.1668 Phases=1,Windings=3,Buses=[BMT161905211.1 BBT10257.1.0 BBT10257.0.2],Conns=[wye wye wye],kvs=[7.967 0.12 0.12],kvas=[35.000000000 35.000000000 35.000000000],Taps=[1,1.000000000,1.000000000],%loadloss=1.293000000,%noloadloss=0.342857000
new transformer.1724 Phases=1,Windings=3,Buses=[BMT155973639.1 BBT10817.1.0 BBT10817.0.2],Conns=[wye wye wye],kvs=[7.967 0.12 0.12],kvas=[35.000000000 35.000000000 35.000000000],Taps=[1,1.000000000,1.000000000],%loadloss=1.293000000,%noloadloss=0.342857000
new transformer.1878 Phases=3,Windings=2,Buses=[BMT161978103.1.2.3 BBT12238.1.2.3.0],Conns=[delta wye],kvs=[13.8 0.22],kvas=[100.000000000 100.000000000],Taps=[1,1.000000000],%loadloss=1.218000000,%noloadloss=0.335000000
new transformer.1920 Phases=3,Windings=2,Buses=[BMT161978102.1.2.3 BBT12476.1.2.3.0],Conns=[delta wye],kvs=[13.8 0.22],kvas=[150.000000000 150.000000000],Taps=[1,1.000000000],%loadloss=1.127000000,%noloadloss=0.280000000
new transformer.1969 Phases=3,Windings=2,Buses=[BMT155973721.1.2.3 BBT12924.1.2.3.0],Conns=[delta wye],kvs=[13.8 0.22],kvas=[75.000000000 75.000000000],Taps=[1,1.000000000],%loadloss=1.340000000,%noloadloss=0.340000000
new transformer.2179 Phases=3,Windings=2,Buses=[BMT165400379.1.2.3 BBT14625.1.2.3.0],Conns=[delta wye],kvs=[13.8 0.22],kvas=[75.000000000 75.000000000],Taps=[1,1.000000000],%loadloss=1.340000000,%noloadloss=0.340000000
new transformer.2228 Phases=3,Windings=2,Buses=[BMT165400372.1.2.3 BBT14982.1.2.3.0],Conns=[delta wye],kvs=[13.8 0.22],kvas=[150.000000000 150.000000000],Taps=[1,1.000000000],%loadloss=1.127000000,%noloadloss=0.280000000
new transformer.1010 Phases=1,Windings=3,Buses=[BMT155973673.3 BBT3425.1.0 BBT3425.0.2],Conns=[wye wye wye],kvs=[7.967 0.12 0.12],kvas=[25.000000000 25.000000000 25.000000000],Taps=[1,1.000000000,1.000000000],%loadloss=1.420000000,%noloadloss=0.320000000
new transformer.1108 Phases=3,Windings=2,Buses=[BMT155973416.1.2.3 BBT4349.1.2.3.0],Conns=[delta wye],kvs=[13.8 0.22],kvas=[75.000000000 75.000000000],Taps=[1,1.000000000],%loadloss=1.340000000,%noloadloss=0.340000000
new transformer.1164 Phases=3,Windings=2,Buses=[BMT155973470.1.2.3 BBT4972.1.2.3.0],Conns=[delta wye],kvs=[13.8 0.22],kvas=[100.000000000 100.000000000],Taps=[1,1.000000000],%loadloss=1.218000000,%noloadloss=0.335000000
new transformer.1192 Phases=1,Windings=3,Buses=[BMT155973681.2 BBT5259.1.0 BBT5259.0.2],Conns=[wye wye wye],kvs=[7.967 0.12 0.12],kvas=[15.000000000 15.000000000 15.000000000],Taps=[1,1.000000000,1.000000000],%loadloss=1.600000000,%noloadloss=0.400000000
new transformer.1290179 Phases=3,Windings=2,Buses=[BMT155973742.1.2.3 BBT77376924.1.2.3.0],Conns=[delta wye],kvs=[13.8 0.22],kvas=[45.000000000 45.000000000],Taps=[1,1.000000000],%loadloss=1.522000000,%noloadloss=0.377777000
new transformer.131210 Phases=3,Windings=2,Buses=[BMT158576879.1.2.3 BBT389692.1.2.3.0],Conns=[delta wye],kvs=[13.8 0.22],kvas=[30.000000000 30.000000000],Taps=[1,1.010000000],%loadloss=1.667000000,%noloadloss=0.433333000
new transformer.131224 Phases=3,Windings=2,Buses=[BMT158576880.1.2.3 BBT389797.1.2.3.0],Conns=[delta wye],kvs=[13.8 0.22],kvas=[30.000000000 30.000000000],Taps=[1,1.010000000],%loadloss=1.667000000,%noloadloss=0.433333000
new transformer.131231 Phases=3,Windings=2,Buses=[BMT158576877.1.2.3 BBT389874.1.2.3.0],Conns=[delta wye],kvs=[13.8 0.22],kvas=[30.000000000 30.000000000],Taps=[1,1.010000000],%loadloss=1.667000000,%noloadloss=0.433333000
new transformer.131238 Phases=3,Windings=2,Buses=[BMT158576876.1.2.3 BBT389979.1.2.3.0],Conns=[delta wye],kvs=[13.8 0.22],kvas=[30.000000000 30.000000000],Taps=[1,1.000000000],%loadloss=1.667000000,%noloadloss=0.433333000
new transformer.131245 Phases=3,Windings=2,Buses=[BMT162779128.1.2.3 BBT390049.1.2.3.0],Conns=[delta wye],kvs=[13.8 0.22],kvas=[30.000000000 30.000000000],Taps=[1,1.000000000],%loadloss=1.667000000,%noloadloss=0.433333000
new transformer.13379 Phases=3,Windings=2,Buses=[BMT164934454.1.2.3 BBT69491.1.2.3.0],Conns=[delta wye],kvs=[13.8 0.22],kvas=[75.000000000 75.000000000],Taps=[1,1.000000000],%loadloss=1.340000000,%noloadloss=0.340000000
new transformer.1339 Phases=3,Windings=2,Buses=[BMT155973617.1.2.3 BBT6820.1.2.3.0],Conns=[delta wye],kvs=[13.8 0.22],kvas=[45.000000000 45.000000000],Taps=[1,1.000000000],%loadloss=1.522000000,%noloadloss=0.377777000
new transformer.13610 Phases=1,Windings=3,Buses=[BMT155973634.1 BBT70226.1.0 BBT70226.0.2],Conns=[wye wye wye],kvs=[7.967 0.12 0.12],kvas=[35.000000000 35.000000000 35.000000000],Taps=[1,1.000000000,1.000000000],%loadloss=1.293000000,%noloadloss=0.342857000
new transformer.1409 Phases=3,Windings=2,Buses=[BMT164934451.1.2.3 BBT7499.1.2.3.0],Conns=[delta wye],kvs=[13.8 0.22],kvas=[75.000000000 75.000000000],Taps=[1,1.000000000],%loadloss=1.340000000,%noloadloss=0.340000000
new transformer.14093 Phases=3,Windings=2,Buses=[BMT155973732.1.2.3 BBT73796.1.2.3.0],Conns=[delta wye],kvs=[13.8 0.22],kvas=[75.000000000 75.000000000],Taps=[1,1.000000000],%loadloss=1.340000000,%noloadloss=0.340000000
new transformer.1605 Phases=3,Windings=2,Buses=[BMT155973625.1.2.3 BBT9578.1.2.3.0],Conns=[delta wye],kvs=[13.8 0.22],kvas=[45.000000000 45.000000000],Taps=[1,1.000000000],%loadloss=1.522000000,%noloadloss=0.377777000
new transformer.16053 Phases=3,Windings=2,Buses=[BMT155973763.1.2.3 BBT96973.1.2.3.0],Conns=[delta wye],kvs=[13.8 0.22],kvas=[100.000000000 100.000000000],Taps=[1,1.000000000],%loadloss=1.218000000,%noloadloss=0.335000000
new transformer.16606 Phases=3,Windings=2,Buses=[BMT155973507.1.2.3 BBT102461.1.2.3.0],Conns=[delta wye],kvs=[13.8 0.22],kvas=[75.000000000 75.000000000],Taps=[1,1.000000000],%loadloss=1.340000000,%noloadloss=0.340000000
new transformer.1766 Phases=3,Windings=2,Buses=[BMT167274376.1.2.3 BBT11209.1.2.3.0],Conns=[delta wye],kvs=[13.8 0.22],kvas=[100.000000000 100.000000000],Taps=[1,1.000000000],%loadloss=1.218000000,%noloadloss=0.335000000
new transformer.1871 Phases=1,Windings=3,Buses=[BMT158576882.2 BBT12147.1.0 BBT12147.0.2],Conns=[wye wye wye],kvs=[7.967 0.12 0.12],kvas=[35.000000000 35.000000000 35.000000000],Taps=[1,1.010000000,1.010000000],%loadloss=1.293000000,%noloadloss=0.342857000
new transformer.2088 Phases=3,Windings=2,Buses=[BMT160306792.1.2.3 BBT13946.1.2.3.0],Conns=[delta wye],kvs=[13.8 0.22],kvas=[75.000000000 75.000000000],Taps=[1,1.000000000],%loadloss=1.340000000,%noloadloss=0.340000000
new transformer.2137 Phases=3,Windings=2,Buses=[BMT158051497.1.2.3 BBT14289.1.2.3.0],Conns=[delta wye],kvs=[13.8 0.22],kvas=[100.000000000 100.000000000],Taps=[1,1.000000000],%loadloss=1.218000000,%noloadloss=0.335000000
new transformer.2550 Phases=3,Windings=2,Buses=[BMT160306787.1.2.3 BBT17642.1.2.3.0],Conns=[delta wye],kvs=[13.8 0.22],kvas=[75.000000000 75.000000000],Taps=[1,1.000000000],%loadloss=1.340000000,%noloadloss=0.340000000
new transformer.1101 Phases=3,Windings=2,Buses=[BMT166036730.1.2.3 BBT4258.1.2.3.0],Conns=[delta wye],kvs=[13.8 0.22],kvas=[75.000000000 75.000000000],Taps=[1,1.000000000],%loadloss=1.340000000,%noloadloss=0.340000000
new transformer.1115 Phases=3,Windings=2,Buses=[BMT169584740.1.2.3 BBT4538.1.2.3.0],Conns=[delta wye],kvs=[13.8 0.22],kvas=[75.000000000 75.000000000],Taps=[1,1.000000000],%loadloss=1.340000000,%noloadloss=0.340000000
new transformer.112877 Phases=3,Windings=2,Buses=[BMT155973340.1.2.3 BBT338452.1.2.3.0],Conns=[delta wye],kvs=[13.8 0.22],kvas=[45.000000000 45.000000000],Taps=[1,1.000000000],%loadloss=1.522000000,%noloadloss=0.377777000
new transformer.115152 Phases=3,Windings=2,Buses=[BMT158576883.1.2.3 BBT355168.1.2.3.0],Conns=[delta wye],kvs=[13.8 0.22],kvas=[45.000000000 45.000000000],Taps=[1,1.010000000],%loadloss=1.522000000,%noloadloss=0.377777000
new transformer.1220 Phases=3,Windings=2,Buses=[BMT155973616.1.2.3 BBT5546.1.2.3.0],Conns=[delta wye],kvs=[13.8 0.22],kvas=[45.000000000 45.000000000],Taps=[1,1.000000000],%loadloss=1.522000000,%noloadloss=0.377777000
new transformer.1269 Phases=1,Windings=3,Buses=[BMT155973563.3 BBT6057.1.0 BBT6057.0.2],Conns=[wye wye wye],kvs=[7.967 0.12 0.12],kvas=[35.000000000 35.000000000 35.000000000],Taps=[1,1.000000000,1.000000000],%loadloss=1.293000000,%noloadloss=0.342857000
new transformer.12693 Phases=3,Windings=2,Buses=[BMT165400380.1.2.3 BBT67692.1.2.3.0],Conns=[delta wye],kvs=[13.8 0.22],kvas=[150.000000000 150.000000000],Taps=[1,1.000000000],%loadloss=1.127000000,%noloadloss=0.280000000
new transformer.1437 Phases=3,Windings=2,Buses=[BMT161363274.1.2.3 BBT7835.1.2.3.0],Conns=[delta wye],kvs=[13.8 0.22],kvas=[45.000000000 45.000000000],Taps=[1,1.000000000],%loadloss=1.522000000,%noloadloss=0.377777000
new transformer.1451349 Phases=1,Windings=3,Buses=[BMT161978104.2 BBT161976102.1.0 BBT161976102.0.2],Conns=[wye wye wye],kvs=[7.967 0.12 0.12],kvas=[10.000000000 10.000000000 10.000000000],Taps=[1,1.000000000,1.000000000],%loadloss=1.800000000,%noloadloss=0.450000000
new transformer.1458 Phases=1,Windings=3,Buses=[BMT155973562.3 BBT8108.1.0 BBT8108.0.2],Conns=[wye wye wye],kvs=[7.967 0.12 0.12],kvas=[35.000000000 35.000000000 35.000000000],Taps=[1,1.000000000,1.000000000],%loadloss=1.293000000,%noloadloss=0.342857000
new transformer.1489933 Phases=1,Windings=3,Buses=[BMT169918160.3 BBT169916981.1.0 BBT169916981.0.2],Conns=[wye wye wye],kvs=[7.967 0.12 0.12],kvas=[35.000000000 35.000000000 35.000000000],Taps=[1,1.000000000,1.000000000],%loadloss=1.293000000,%noloadloss=0.342857000
new transformer.1542 Phases=3,Windings=2,Buses=[BMT155973620.1.2.3 BBT8878.1.2.3.0],Conns=[delta wye],kvs=[13.8 0.22],kvas=[45.000000000 45.000000000],Taps=[1,1.000000000],%loadloss=1.522000000,%noloadloss=0.377777000
new transformer.1591 Phases=1,Windings=3,Buses=[BMT161905212.1 BBT9403.1.0 BBT9403.0.2],Conns=[wye wye wye],kvs=[7.967 0.12 0.12],kvas=[35.000000000 35.000000000 35.000000000],Taps=[1,1.000000000,1.000000000],%loadloss=1.293000000,%noloadloss=0.342857000
new transformer.1696 Phases=1,Windings=3,Buses=[BMT155973623.1 BBT10509.1.0 BBT10509.0.2],Conns=[wye wye wye],kvs=[7.967 0.12 0.12],kvas=[35.000000000 35.000000000 35.000000000],Taps=[1,1.000000000,1.000000000],%loadloss=1.293000000,%noloadloss=0.342857000
new transformer.1745 Phases=1,Windings=3,Buses=[BMT155973633.1 BBT10999.1.0 BBT10999.0.2],Conns=[wye wye wye],kvs=[7.967 0.12 0.12],kvas=[35.000000000 35.000000000 35.000000000],Taps=[1,1.000000000,1.000000000],%loadloss=1.293000000,%noloadloss=0.342857000
new transformer.2053 Phases=3,Windings=2,Buses=[BMT161978098.1.2.3 BBT13736.1.2.3.0],Conns=[delta wye],kvs=[13.8 0.22],kvas=[150.000000000 150.000000000],Taps=[1,1.000000000],%loadloss=1.127000000,%noloadloss=0.280000000
new transformer.2109 Phases=3,Windings=2,Buses=[BMT161978097.1.2.3 BBT14135.1.2.3.0],Conns=[delta wye],kvs=[13.8 0.22],kvas=[100.000000000 100.000000000],Taps=[1,1.000000000],%loadloss=1.218000000,%noloadloss=0.335000000
new transformer.2151 Phases=3,Windings=2,Buses=[BMT165400375.1.2.3 BBT14464.1.2.3.0],Conns=[delta wye],kvs=[13.8 0.22],kvas=[150.000000000 150.000000000],Taps=[1,1.000000000],%loadloss=1.127000000,%noloadloss=0.280000000
new transformer.2263 Phases=3,Windings=2,Buses=[BMT158051494.1.2.3 BBT15276.1.2.3.0],Conns=[delta wye],kvs=[13.8 0.22],kvas=[75.000000000 75.000000000],Taps=[1,1.000000000],%loadloss=1.340000000,%noloadloss=0.340000000
new transformer.2515 Phases=3,Windings=2,Buses=[BMT160306790.1.2.3 BBT17264.1.2.3.0],Conns=[delta wye],kvs=[13.8 0.22],kvas=[75.000000000 75.000000000],Taps=[1,1.000000000],%loadloss=1.340000000,%noloadloss=0.340000000
new transformer.66474 Phases=3,Windings=2,Buses=[BMT160306788.1.2.3 BBT229651.1.2.3.0],Conns=[delta wye],kvs=[13.8 0.22],kvas=[45.000000000 45.000000000],Taps=[1,1.000000000],%loadloss=1.522000000,%noloadloss=0.377777000
new transformer.751 Phases=1,Windings=3,Buses=[BMT155973480.1 BBT1493.1.0 BBT1493.0.2],Conns=[wye wye wye],kvs=[7.967 0.12 0.12],kvas=[10.000000000 10.000000000 10.000000000],Taps=[1,1.000000000,1.000000000],%loadloss=1.800000000,%noloadloss=0.450000000
new transformer.807 Phases=3,Windings=2,Buses=[BMT155973490.1.2.3 BBT1738.1.2.3.0],Conns=[delta wye],kvs=[13.8 0.22],kvas=[30.000000000 30.000000000],Taps=[1,1.000000000],%loadloss=1.667000000,%noloadloss=0.433333000
new transformer.828 Phases=1,Windings=3,Buses=[BMT169323417.1 BBT1990.1.0 BBT1990.0.2],Conns=[wye wye wye],kvs=[7.967 0.12 0.12],kvas=[25.000000000 25.000000000 25.000000000],Taps=[1,1.000000000,1.000000000],%loadloss=1.420000000,%noloadloss=0.320000000
new transformer.863 Phases=3,Windings=2,Buses=[BMT155973581.1.2.3 BBT2172.1.2.3.0],Conns=[delta wye],kvs=[13.8 0.22],kvas=[45.000000000 45.000000000],Taps=[1,1.000000000],%loadloss=1.522000000,%noloadloss=0.377777000
new transformer.1045 Phases=3,Windings=2,Buses=[BMT169584741.1.2.3 BBT3726.1.2.3.0],Conns=[delta wye],kvs=[13.8 0.22],kvas=[75.000000000 75.000000000],Taps=[1,1.000000000],%loadloss=1.340000000,%noloadloss=0.340000000
new transformer.1262 Phases=3,Windings=2,Buses=[BMT161363272.1.2.3 BBT5959.1.2.3.0],Conns=[delta wye],kvs=[13.8 0.22],kvas=[100.000000000 100.000000000],Taps=[1,1.000000000],%loadloss=1.218000000,%noloadloss=0.335000000
new transformer.1329666 Phases=3,Windings=2,Buses=[BMT163853382.1.2.3 BBT97375924.1.2.3.0],Conns=[delta wye],kvs=[13.8 0.22],kvas=[45.000000000 45.000000000],Taps=[1,1.000000000],%loadloss=1.522000000,%noloadloss=0.377777000
new transformer.1329897 Phases=3,Windings=2,Buses=[BMT163853384.1.2.3 BBT97421571.1.2.3.0],Conns=[delta wye],kvs=[13.8 0.22],kvas=[45.000000000 45.000000000],Taps=[1,1.000000000],%loadloss=1.522000000,%noloadloss=0.377777000
new transformer.1353 Phases=3,Windings=2,Buses=[BMT159905340.1.2.3 BBT6946.1.2.3.0],Conns=[delta wye],kvs=[13.8 0.22],kvas=[45.000000000 45.000000000],Taps=[1,1.000000000],%loadloss=1.522000000,%noloadloss=0.377777000
new transformer.137874 Phases=3,Windings=2,Buses=[BMT158576884.1.2.3 BBT406079.1.2.3.0],Conns=[delta wye],kvs=[13.8 0.22],kvas=[45.000000000 45.000000000],Taps=[1,1.010000000],%loadloss=1.522000000,%noloadloss=0.377777000
new transformer.13792 Phases=1,Windings=3,Buses=[BMT156364227.1 BBT70765.1.0 BBT70765.0.2],Conns=[wye wye wye],kvs=[7.967 0.12 0.12],kvas=[25.000000000 25.000000000 25.000000000],Taps=[1,1.000000000,1.000000000],%loadloss=1.420000000,%noloadloss=0.320000000
new transformer.13799 Phases=3,Windings=2,Buses=[BMT155973764.1.2.3 BBT70849.1.2.3.0],Conns=[delta wye],kvs=[13.8 0.22],kvas=[100.000000000 100.000000000],Taps=[1,1.000000000],%loadloss=1.218000000,%noloadloss=0.335000000
new transformer.1394201 Phases=3,Windings=2,Buses=[BMT165653298.1.2.3 BBT149017587.1.2.3.0],Conns=[delta wye],kvs=[13.8 0.22],kvas=[45.000000000 45.000000000],Taps=[1,1.000000000],%loadloss=1.522000000,%noloadloss=0.377777000
new transformer.149543 Phases=1,Windings=3,Buses=[BMT155973445.1 BBT430922.1.0 BBT430922.0.2],Conns=[wye wye wye],kvs=[7.967 0.12 0.12],kvas=[35.000000000 35.000000000 35.000000000],Taps=[1,1.000000000,1.000000000],%loadloss=1.293000000,%noloadloss=0.342857000
new transformer.1647 Phases=3,Windings=2,Buses=[BMT165225355.1.2.3 BBT9914.1.2.3.0],Conns=[delta wye],kvs=[13.8 0.22],kvas=[150.000000000 150.000000000],Taps=[1,1.000000000],%loadloss=1.127000000,%noloadloss=0.280000000
new transformer.1717 Phases=3,Windings=2,Buses=[BMT167274375.1.2.3 BBT10698.1.2.3.0],Conns=[delta wye],kvs=[13.8 0.22],kvas=[150.000000000 150.000000000],Taps=[1,1.000000000],%loadloss=1.127000000,%noloadloss=0.280000000
new transformer.1962 Phases=3,Windings=2,Buses=[BMT155973736.1.2.3 BBT12826.1.2.3.0],Conns=[delta wye],kvs=[13.8 0.22],kvas=[75.000000000 75.000000000],Taps=[1,1.000000000],%loadloss=1.340000000,%noloadloss=0.340000000
new transformer.2011 Phases=3,Windings=2,Buses=[BMT161978099.1.2.3 BBT13323.1.2.3.0],Conns=[delta wye],kvs=[13.8 0.22],kvas=[100.000000000 100.000000000],Taps=[1,1.000000000],%loadloss=1.218000000,%noloadloss=0.335000000
new transformer.2298 Phases=3,Windings=2,Buses=[BMT163998520.1.2.3 BBT15556.1.2.3.0],Conns=[delta wye],kvs=[13.8 0.22],kvas=[100.000000000 100.000000000],Taps=[1,1.000000000],%loadloss=1.218000000,%noloadloss=0.335000000
new transformer.2872 Phases=3,Windings=2,Buses=[BMT155973345.1.2.3 BBT19910.1.2.3.0],Conns=[delta wye],kvs=[13.8 0.22],kvas=[45.000000000 45.000000000],Taps=[1,1.000000000],%loadloss=1.522000000,%noloadloss=0.377777000
new transformer.3383 Phases=3,Windings=2,Buses=[BMT157359872.1.2.3 BBT24390.1.2.3.0],Conns=[delta wye],kvs=[13.8 0.22],kvas=[45.000000000 45.000000000],Taps=[1,1.000000000],%loadloss=1.522000000,%noloadloss=0.377777000
new transformer.3495 Phases=3,Windings=2,Buses=[BMT157359871.1.2.3 BBT25188.1.2.3.0],Conns=[delta wye],kvs=[13.8 0.22],kvas=[45.000000000 45.000000000],Taps=[1,1.000000000],%loadloss=1.522000000,%noloadloss=0.377777000
new transformer.756863 Phases=3,Windings=2,Buses=[BMT163998516.1.2.3 BBT3177057.1.2.3.0],Conns=[delta wye],kvs=[13.8 0.22],kvas=[150.000000000 150.000000000],Taps=[1,1.000000000],%loadloss=1.127000000,%noloadloss=0.280000000
new transformer.856 Phases=3,Windings=2,Buses=[BMT155973429.1.2.3 BBT2095.1.2.3.0],Conns=[delta wye],kvs=[13.8 0.22],kvas=[45.000000000 45.000000000],Taps=[1,1.000000000],%loadloss=1.522000000,%noloadloss=0.377777000
new transformer.933 Phases=3,Windings=2,Buses=[BMT155973471.1.2.3 BBT2634.1.2.3.0],Conns=[delta wye],kvs=[13.8 0.22],kvas=[75.000000000 75.000000000],Taps=[1,1.000000000],%loadloss=1.340000000,%noloadloss=0.340000000
new transformer.97309 Phases=3,Windings=2,Buses=[BMT159905347.1.2.3 BBT301583.1.2.3.0],Conns=[delta wye],kvs=[13.8 0.22],kvas=[45.000000000 45.000000000],Taps=[1,1.000000000],%loadloss=1.522000000,%noloadloss=0.377777000
new transformer.97316 Phases=3,Windings=2,Buses=[BMT155973560.1.2.3 BBT301667.1.2.3.0],Conns=[delta wye],kvs=[13.8 0.22],kvas=[45.000000000 45.000000000],Taps=[1,1.000000000],%loadloss=1.522000000,%noloadloss=0.377777000
new transformer.97323 Phases=3,Windings=2,Buses=[BMT155973559.1.2.3 BBT301751.1.2.3.0],Conns=[delta wye],kvs=[13.8 0.22],kvas=[45.000000000 45.000000000],Taps=[1,1.000000000],%loadloss=1.522000000,%noloadloss=0.377777000
new transformer.1136 Phases=1,Windings=3,Buses=[BMT164934456.3 BBT4713.1.0 BBT4713.0.2],Conns=[wye wye wye],kvs=[7.967 0.12 0.12],kvas=[15.000000000 15.000000000 15.000000000],Taps=[1,1.000000000,1.000000000],%loadloss=1.600000000,%noloadloss=0.400000000
new transformer.1248 Phases=1,Windings=3,Buses=[BMT155973679.2 BBT5763.1.0 BBT5763.0.2],Conns=[wye wye wye],kvs=[7.967 0.12 0.12],kvas=[35.000000000 35.000000000 35.000000000],Taps=[1,1.000000000,1.000000000],%loadloss=1.293000000,%noloadloss=0.342857000
new transformer.1297 Phases=3,Windings=2,Buses=[BMT164934459.1.2.3 BBT6344.1.2.3.0],Conns=[delta wye],kvs=[13.8 0.22],kvas=[75.000000000 75.000000000],Taps=[1,1.000000000],%loadloss=1.340000000,%noloadloss=0.340000000
new transformer.132267 Phases=1,Windings=3,Buses=[BMT169323418.1 BBT392569.1.0 BBT392569.0.2],Conns=[wye wye wye],kvs=[7.967 0.12 0.12],kvas=[15.000000000 15.000000000 15.000000000],Taps=[1,1.000000000,1.000000000],%loadloss=1.600000000,%noloadloss=0.400000000
new transformer.132274 Phases=3,Windings=2,Buses=[BMT169584745.1.2.3 BBT392618.1.2.3.0],Conns=[delta wye],kvs=[13.8 0.22],kvas=[45.000000000 45.000000000],Taps=[1,1.000000000],%loadloss=1.522000000,%noloadloss=0.377777000
new transformer.132281 Phases=3,Windings=2,Buses=[BMT169584744.1.2.3 BBT392716.1.2.3.0],Conns=[delta wye],kvs=[13.8 0.22],kvas=[45.000000000 45.000000000],Taps=[1,1.000000000],%loadloss=1.522000000,%noloadloss=0.377777000
new transformer.1346 Phases=3,Windings=2,Buses=[BMT155973494.1.2.3 BBT6876.1.2.3.0],Conns=[delta wye],kvs=[13.8 0.22],kvas=[45.000000000 45.000000000],Taps=[1,1.000000000],%loadloss=1.522000000,%noloadloss=0.377777000
new transformer.1443859 Phases=3,Windings=2,Buses=[BMT165400374.1.2.3 BBT159984298.1.2.3.0],Conns=[delta wye],kvs=[13.8 0.22],kvas=[75.000000000 75.000000000],Taps=[1,1.000000000],%loadloss=1.340000000,%noloadloss=0.340000000
new transformer.1444 Phases=3,Windings=2,Buses=[BMT164934446.1.2.3 BBT7919.1.2.3.0],Conns=[delta wye],kvs=[13.8 0.22],kvas=[75.000000000 75.000000000],Taps=[1,1.000000000],%loadloss=1.340000000,%noloadloss=0.340000000
new transformer.1570 Phases=3,Windings=2,Buses=[BMT155973621.1.2.3 BBT9116.1.2.3.0],Conns=[delta wye],kvs=[13.8 0.22],kvas=[45.000000000 45.000000000],Taps=[1,1.000000000],%loadloss=1.522000000,%noloadloss=0.377777000
new transformer.1703 Phases=1,Windings=3,Buses=[BMT169918162.3 BBT10614.1.0 BBT10614.0.2],Conns=[wye wye wye],kvs=[7.967 0.12 0.12],kvas=[35.000000000 35.000000000 35.000000000],Taps=[1,1.000000000,1.000000000],%loadloss=1.293000000,%noloadloss=0.342857000
new transformer.1808 Phases=1,Windings=3,Buses=[BMT155973642.1 BBT11657.1.0 BBT11657.0.2],Conns=[wye wye wye],kvs=[7.967 0.12 0.12],kvas=[35.000000000 35.000000000 35.000000000],Taps=[1,1.000000000,1.000000000],%loadloss=1.293000000,%noloadloss=0.342857000
new transformer.2067 Phases=3,Windings=2,Buses=[BMT155973733.1.2.3 BBT13876.1.2.3.0],Conns=[delta wye],kvs=[13.8 0.22],kvas=[100.000000000 100.000000000],Taps=[1,1.000000000],%loadloss=1.218000000,%noloadloss=0.335000000
new transformer.2165 Phases=3,Windings=2,Buses=[BMT158051496.1.2.3 BBT14527.1.2.3.0],Conns=[delta wye],kvs=[13.8 0.22],kvas=[100.000000000 100.000000000],Taps=[1,1.000000000],%loadloss=1.218000000,%noloadloss=0.335000000
new transformer.2270 Phases=3,Windings=2,Buses=[BMT160306783.1.2.3 BBT15339.1.2.3.0],Conns=[delta wye],kvs=[13.8 0.22],kvas=[75.000000000 75.000000000],Taps=[1,1.000000000],%loadloss=1.340000000,%noloadloss=0.340000000
new transformer.2424 Phases=3,Windings=2,Buses=[BMT160306784.1.2.3 BBT16599.1.2.3.0],Conns=[delta wye],kvs=[13.8 0.22],kvas=[75.000000000 75.000000000],Taps=[1,1.000000000],%loadloss=1.340000000,%noloadloss=0.340000000
new transformer.3061 Phases=1,Windings=3,Buses=[BMT155973766.3 BBT21534.1.0 BBT21534.0.2],Conns=[wye wye wye],kvs=[7.967 0.12 0.12],kvas=[35.000000000 35.000000000 35.000000000],Taps=[1,1.000000000,1.000000000],%loadloss=1.293000000,%noloadloss=0.342857000
new transformer.884 Phases=1,Windings=3,Buses=[BMT155973430.3 BBT2256.1.0 BBT2256.0.2],Conns=[wye wye wye],kvs=[7.967 0.12 0.12],kvas=[35.000000000 35.000000000 35.000000000],Taps=[1,1.000000000,1.000000000],%loadloss=1.293000000,%noloadloss=0.342857000
new transformer.905 Phases=1,Windings=3,Buses=[BMT155973443.1 BBT2410.1.0 BBT2410.0.2],Conns=[wye wye wye],kvs=[7.967 0.12 0.12],kvas=[35.000000000 35.000000000 35.000000000],Taps=[1,1.000000000,1.000000000],%loadloss=1.293000000,%noloadloss=0.342857000
new transformer.968 Phases=3,Windings=2,Buses=[BMT155973420.1.2.3 BBT2942.1.2.3.0],Conns=[delta wye],kvs=[13.8 0.22],kvas=[75.000000000 75.000000000],Taps=[1,1.000000000],%loadloss=1.340000000,%noloadloss=0.340000000
new transformer.996 Phases=3,Windings=2,Buses=[BMT169584742.1.2.3 BBT3278.1.2.3.0],Conns=[delta wye],kvs=[13.8 0.22],kvas=[100.000000000 100.000000000],Taps=[1,1.000000000],%loadloss=1.218000000,%noloadloss=0.335000000
new transformer.2284 Phases=3,Windings=2,Buses=[BMT158051495.1.2.3 BBT15465.1.2.3.0],Conns=[delta wye],kvs=[13.8 0.22],kvas=[75.000000000 75.000000000],Taps=[1,1.000000000],%loadloss=1.340000000,%noloadloss=0.340000000
new transformer.2648 Phases=3,Windings=2,Buses=[BMT160306851.1.2.3 BBT18503.1.2.3.0],Conns=[delta wye],kvs=[13.8 0.22],kvas=[150.000000000 150.000000000],Taps=[1,1.000000000],%loadloss=1.127000000,%noloadloss=0.280000000
new transformer.3054 Phases=1,Windings=3,Buses=[BMT155973767.3 BBT21492.1.0 BBT21492.0.2],Conns=[wye wye wye],kvs=[7.967 0.12 0.12],kvas=[35.000000000 35.000000000 35.000000000],Taps=[1,1.000000000,1.000000000],%loadloss=1.293000000,%noloadloss=0.342857000
new transformer.765 Phases=1,Windings=3,Buses=[BMT155973482.1 BBT1563.1.0 BBT1563.0.2],Conns=[wye wye wye],kvs=[7.967 0.12 0.12],kvas=[25.000000000 25.000000000 25.000000000],Taps=[1,1.000000000,1.000000000],%loadloss=1.420000000,%noloadloss=0.320000000
new transformer.793 Phases=1,Windings=3,Buses=[BMT169323420.1 BBT1654.1.0 BBT1654.0.2],Conns=[wye wye wye],kvs=[7.967 0.12 0.12],kvas=[35.000000000 35.000000000 35.000000000],Taps=[1,1.000000000,1.000000000],%loadloss=1.293000000,%noloadloss=0.342857000
new transformer.919 Phases=3,Windings=2,Buses=[BMT155973475.1.2.3 BBT2515.1.2.3.0],Conns=[delta wye],kvs=[13.8 0.22],kvas=[75.000000000 75.000000000],Taps=[1,1.000000000],%loadloss=1.340000000,%noloadloss=0.340000000
new transformer.982 Phases=1,Windings=3,Buses=[BMT155973674.3 BBT3124.1.0 BBT3124.0.2],Conns=[wye wye wye],kvs=[7.967 0.12 0.12],kvas=[15.000000000 15.000000000 15.000000000],Taps=[1,1.000000000,1.000000000],%loadloss=1.600000000,%noloadloss=0.400000000
new transformer.1031 Phases=3,Windings=2,Buses=[BMT155973428.1.2.3 BBT3586.1.2.3.0],Conns=[delta wye],kvs=[13.8 0.22],kvas=[45.000000000 45.000000000],Taps=[1,1.000000000],%loadloss=1.522000000,%noloadloss=0.377777000
new transformer.13414 Phases=3,Windings=2,Buses=[BMT165400381.1.2.3 BBT69652.1.2.3.0],Conns=[delta wye],kvs=[13.8 0.22],kvas=[150.000000000 150.000000000],Taps=[1,1.000000000],%loadloss=1.127000000,%noloadloss=0.280000000
new transformer.1388 Phases=3,Windings=2,Buses=[BMT164934460.1.2.3 BBT7268.1.2.3.0],Conns=[delta wye],kvs=[13.8 0.22],kvas=[45.000000000 45.000000000],Taps=[1,1.000000000],%loadloss=1.522000000,%noloadloss=0.377777000
new transformer.1395 Phases=1,Windings=3,Buses=[BMT164934458.2 BBT7359.1.0 BBT7359.0.2],Conns=[wye wye wye],kvs=[7.967 0.12 0.12],kvas=[35.000000000 35.000000000 35.000000000],Taps=[1,1.000000000,1.000000000],%loadloss=1.293000000,%noloadloss=0.342857000
new transformer.1416 Phases=1,Windings=3,Buses=[BMT164214701.2 BBT7625.1.0 BBT7625.0.2],Conns=[wye wye wye],kvs=[7.967 0.12 0.12],kvas=[35.000000000 35.000000000 35.000000000],Taps=[1,1.000000000,1.000000000],%loadloss=1.293000000,%noloadloss=0.342857000
new transformer.14422 Phases=3,Windings=2,Buses=[BMT164934455.1.2.3 BBT77366.1.2.3.0],Conns=[delta wye],kvs=[13.8 0.22],kvas=[30.000000000 30.000000000],Taps=[1,1.000000000],%loadloss=1.667000000,%noloadloss=0.433333000
new transformer.1465 Phases=3,Windings=2,Buses=[BMT155973493.1.2.3 BBT8220.1.2.3.0],Conns=[delta wye],kvs=[13.8 0.22],kvas=[45.000000000 45.000000000],Taps=[1,1.000000000],%loadloss=1.522000000,%noloadloss=0.377777000
new transformer.1528 Phases=3,Windings=2,Buses=[BMT167274381.1.2.3 BBT8731.1.2.3.0],Conns=[delta wye],kvs=[13.8 0.22],kvas=[75.000000000 75.000000000],Taps=[1,1.000000000],%loadloss=1.340000000,%noloadloss=0.340000000
new transformer.1675 Phases=3,Windings=2,Buses=[BMT167274377.1.2.3 BBT10320.1.2.3.0],Conns=[delta wye],kvs=[13.8 0.22],kvas=[100.000000000 100.000000000],Taps=[1,1.000000000],%loadloss=1.218000000,%noloadloss=0.335000000
new transformer.1780 Phases=1,Windings=3,Buses=[BMT155973640.1 BBT11398.1.0 BBT11398.0.2],Conns=[wye wye wye],kvs=[7.967 0.12 0.12],kvas=[35.000000000 35.000000000 35.000000000],Taps=[1,1.000000000,1.000000000],%loadloss=1.293000000,%noloadloss=0.342857000
new transformer.1829 Phases=1,Windings=3,Buses=[BMT155973739.1 BBT11867.1.0 BBT11867.0.2],Conns=[wye wye wye],kvs=[7.967 0.12 0.12],kvas=[15.000000000 15.000000000 15.000000000],Taps=[1,1.000000000,1.000000000],%loadloss=1.600000000,%noloadloss=0.400000000
new transformer.3047 Phases=3,Windings=2,Buses=[BMT155973341.1.2.3 BBT21436.1.2.3.0],Conns=[delta wye],kvs=[13.8 0.22],kvas=[75.000000000 75.000000000],Taps=[1,1.000000000],%loadloss=1.340000000,%noloadloss=0.340000000
new transformer.814 Phases=3,Windings=2,Buses=[BMT155973473.1.2.3 BBT1815.1.2.3.0],Conns=[delta wye],kvs=[13.8 0.22],kvas=[45.000000000 45.000000000],Taps=[1,1.000000000],%loadloss=1.522000000,%noloadloss=0.377777000
new transformer.961 Phases=1,Windings=3,Buses=[BMT155973672.3 BBT2872.1.0 BBT2872.0.2],Conns=[wye wye wye],kvs=[7.967 0.12 0.12],kvas=[15.000000000 15.000000000 15.000000000],Taps=[1,1.000000000,1.000000000],%loadloss=1.600000000,%noloadloss=0.400000000
new transformer.975 Phases=3,Windings=2,Buses=[BMT165448741.1.2.3 BBT3054.1.2.3.0],Conns=[delta wye],kvs=[13.8 0.22],kvas=[45.000000000 45.000000000],Taps=[1,1.000000000],%loadloss=1.522000000,%noloadloss=0.377777000
new transformer.989 Phases=3,Windings=2,Buses=[BMT155973425.1.2.3 BBT3187.1.2.3.0],Conns=[delta wye],kvs=[13.8 0.22],kvas=[75.000000000 75.000000000],Taps=[1,1.000000000],%loadloss=1.340000000,%noloadloss=0.340000000
new transformer.1080 Phases=3,Windings=2,Buses=[BMT155973486.1.2.3 BBT4041.1.2.3.0],Conns=[delta wye],kvs=[13.8 0.22],kvas=[75.000000000 75.000000000],Taps=[1,1.000000000],%loadloss=1.340000000,%noloadloss=0.340000000
new transformer.1143 Phases=3,Windings=2,Buses=[BMT155973615.1.2.3 BBT4797.1.2.3.0],Conns=[delta wye],kvs=[13.8 0.22],kvas=[75.000000000 75.000000000],Taps=[1,1.000000000],%loadloss=1.340000000,%noloadloss=0.340000000
new transformer.1213 Phases=3,Windings=2,Buses=[BMT155973487.1.2.3 BBT5462.1.2.3.0],Conns=[delta wye],kvs=[13.8 0.22],kvas=[75.000000000 75.000000000],Taps=[1,1.000000000],%loadloss=1.340000000,%noloadloss=0.340000000
new transformer.1234 Phases=3,Windings=2,Buses=[BMT158542300.1.2.3 BBT5693.1.2.3.0],Conns=[delta wye],kvs=[13.8 0.22],kvas=[30.000000000 30.000000000],Taps=[1,1.000000000],%loadloss=1.667000000,%noloadloss=0.433333000
new transformer.1304 Phases=3,Windings=2,Buses=[BMT161363270.1.2.3 BBT6449.1.2.3.0],Conns=[delta wye],kvs=[13.8 0.22],kvas=[75.000000000 75.000000000],Taps=[1,1.000000000],%loadloss=1.340000000,%noloadloss=0.340000000
new transformer.1330058 Phases=3,Windings=2,Buses=[BMT163853386.1.2.3 BBT97460533.1.2.3.0],Conns=[delta wye],kvs=[13.8 0.22],kvas=[45.000000000 45.000000000],Taps=[1,1.000000000],%loadloss=1.522000000,%noloadloss=0.377777000
new transformer.1330163 Phases=3,Windings=2,Buses=[BMT163853387.1.2.3 BBT97488785.1.2.3.0],Conns=[delta wye],kvs=[13.8 0.22],kvas=[45.000000000 45.000000000],Taps=[1,1.000000000],%loadloss=1.522000000,%noloadloss=0.377777000
new transformer.1332 Phases=3,Windings=2,Buses=[BMT158542301.1.2.3 BBT6764.1.2.3.0],Conns=[delta wye],kvs=[13.8 0.22],kvas=[45.000000000 45.000000000],Taps=[1,1.000000000],%loadloss=1.522000000,%noloadloss=0.377777000
new transformer.1376510 Phases=3,Windings=2,Buses=[BMT155973735.1.2.3 BBT135743400.1.2.3.0],Conns=[delta wye],kvs=[13.8 0.22],kvas=[150.000000000 150.000000000],Taps=[1,1.000000000],%loadloss=1.127000000,%noloadloss=0.280000000
new transformer.1430 Phases=3,Windings=2,Buses=[BMT155973508.1.2.3 BBT7772.1.2.3.0],Conns=[delta wye],kvs=[13.8 0.22],kvas=[75.000000000 75.000000000],Taps=[1,1.000000000],%loadloss=1.340000000,%noloadloss=0.340000000
new transformer.1633 Phases=3,Windings=2,Buses=[BMT167274380.1.2.3 BBT9760.1.2.3.0],Conns=[delta wye],kvs=[13.8 0.22],kvas=[150.000000000 150.000000000],Taps=[1,1.000000000],%loadloss=1.127000000,%noloadloss=0.280000000
new transformer.1836 Phases=1,Windings=3,Buses=[BMT155973741.1 BBT11902.1.0 BBT11902.0.2],Conns=[wye wye wye],kvs=[7.967 0.12 0.12],kvas=[35.000000000 35.000000000 35.000000000],Taps=[1,1.000000000,1.000000000],%loadloss=1.293000000,%noloadloss=0.342857000
new transformer.2095 Phases=3,Windings=2,Buses=[BMT158051498.1.2.3 BBT14023.1.2.3.0],Conns=[delta wye],kvs=[13.8 0.22],kvas=[75.000000000 75.000000000],Taps=[1,1.000000000],%loadloss=1.340000000,%noloadloss=0.340000000
new transformer.2144 Phases=3,Windings=2,Buses=[BMT155973380.1.2.3 BBT14401.1.2.3.0],Conns=[delta wye],kvs=[13.8 0.22],kvas=[100.000000000 100.000000000],Taps=[1,1.000000000],%loadloss=1.218000000,%noloadloss=0.335000000
new transformer.2340 Phases=3,Windings=2,Buses=[BMT160306856.1.2.3 BBT15934.1.2.3.0],Conns=[delta wye],kvs=[13.8 0.22],kvas=[100.000000000 100.000000000],Taps=[1,1.000000000],%loadloss=1.218000000,%noloadloss=0.335000000
new transformer.2452 Phases=3,Windings=2,Buses=[BMT160306786.1.2.3 BBT16767.1.2.3.0],Conns=[delta wye],kvs=[13.8 0.22],kvas=[75.000000000 75.000000000],Taps=[1,1.000000000],%loadloss=1.340000000,%noloadloss=0.340000000
new transformer.2508 Phases=3,Windings=2,Buses=[BMT160306853.1.2.3 BBT17201.1.2.3.0],Conns=[delta wye],kvs=[13.8 0.22],kvas=[75.000000000 75.000000000],Taps=[1,1.000000000],%loadloss=1.340000000,%noloadloss=0.340000000
new transformer.2606 Phases=3,Windings=2,Buses=[BMT163998519.1.2.3 BBT18027.1.2.3.0],Conns=[delta wye],kvs=[13.8 0.22],kvas=[100.000000000 100.000000000],Taps=[1,1.000000000],%loadloss=1.218000000,%noloadloss=0.335000000
new transformer.668047 Phases=1,Windings=3,Buses=[BMT169323421.1 BBT2806057.1.0 BBT2806057.0.2],Conns=[wye wye wye],kvs=[7.967 0.12 0.12],kvas=[15.000000000 15.000000000 15.000000000],Taps=[1,1.000000000,1.000000000],%loadloss=1.600000000,%noloadloss=0.400000000
new transformer.898 Phases=1,Windings=3,Buses=[BMT155973584.3 BBT2354.1.0 BBT2354.0.2],Conns=[wye wye wye],kvs=[7.967 0.12 0.12],kvas=[15.000000000 15.000000000 15.000000000],Taps=[1,1.000000000,1.000000000],%loadloss=1.600000000,%noloadloss=0.400000000
new transformer.2431 Phases=3,Windings=2,Buses=[BMT160306855.1.2.3 BBT16641.1.2.3.0],Conns=[delta wye],kvs=[13.8 0.22],kvas=[150.000000000 150.000000000],Taps=[1,1.000000000],%loadloss=1.127000000,%noloadloss=0.280000000
new transformer.2781 Phases=3,Windings=2,Buses=[BMT165333398.1.2.3 BBT19371.1.2.3.0],Conns=[delta wye],kvs=[13.8 0.22],kvas=[75.000000000 75.000000000],Taps=[1,1.000000000],%loadloss=1.340000000,%noloadloss=0.340000000
new transformer.97351 Phases=1,Windings=3,Buses=[BMT155973675.3 BBT301884.1.0 BBT301884.0.2],Conns=[wye wye wye],kvs=[7.967 0.12 0.12],kvas=[25.000000000 25.000000000 25.000000000],Taps=[1,1.000000000,1.000000000],%loadloss=1.420000000,%noloadloss=0.320000000
new transformer.877 Phases=1,Windings=3,Buses=[BMT169323415.1 BBT2200.1.0 BBT2200.0.2],Conns=[wye wye wye],kvs=[7.967 0.12 0.12],kvas=[35.000000000 35.000000000 35.000000000],Taps=[1,1.000000000,1.000000000],%loadloss=1.293000000,%noloadloss=0.342857000
new transformer.95545 Phases=3,Windings=2,Buses=[BMT159905344.1.2.3 BBT297761.1.2.3.0],Conns=[delta wye],kvs=[13.8 0.22],kvas=[45.000000000 45.000000000],Taps=[1,1.000000000],%loadloss=1.522000000,%noloadloss=0.377777000
new transformer.95552 Phases=3,Windings=2,Buses=[BMT159905345.1.2.3 BBT297845.1.2.3.0],Conns=[delta wye],kvs=[13.8 0.22],kvas=[75.000000000 75.000000000],Taps=[1,1.000000000],%loadloss=1.340000000,%noloadloss=0.340000000
new transformer.95559 Phases=3,Windings=2,Buses=[BMT159905342.1.2.3 BBT297936.1.2.3.0],Conns=[delta wye],kvs=[13.8 0.22],kvas=[45.000000000 45.000000000],Taps=[1,1.000000000],%loadloss=1.522000000,%noloadloss=0.377777000
new transformer.3502 Phases=3,Windings=2,Buses=[BMT157359870.1.2.3 BBT25251.1.2.3.0],Conns=[delta wye],kvs=[13.8 0.22],kvas=[150.000000000 150.000000000],Taps=[1,1.000000000],%loadloss=1.127000000,%noloadloss=0.280000000
new transformer.787978 Phases=3,Windings=2,Buses=[BMT155973761.1.2.3 BBT3448720.1.2.3.0],Conns=[delta wye],kvs=[13.8 0.22],kvas=[75.000000000 75.000000000],Taps=[1,1.000000000],%loadloss=1.340000000,%noloadloss=0.340000000
new transformer.821 Phases=1,Windings=3,Buses=[BMT169323416.1 BBT1906.1.0 BBT1906.0.2],Conns=[wye wye wye],kvs=[7.967 0.12 0.12],kvas=[35.000000000 35.000000000 35.000000000],Taps=[1,1.000000000,1.000000000],%loadloss=1.293000000,%noloadloss=0.342857000
new transformer.912 Phases=3,Windings=2,Buses=[BMT155973583.1.2.3 BBT2452.1.2.3.0],Conns=[delta wye],kvs=[13.8 0.22],kvas=[30.000000000 30.000000000],Taps=[1,1.000000000],%loadloss=1.667000000,%noloadloss=0.433333000
new transformer.954 Phases=3,Windings=2,Buses=[BMT169584743.1.2.3 BBT2823.1.2.3.0],Conns=[delta wye],kvs=[13.8 0.22],kvas=[45.000000000 45.000000000],Taps=[1,1.000000000],%loadloss=1.522000000,%noloadloss=0.377777000
