CemigDFeeders/CGAU10/CGAU10SegmentosBT.dss
new line.11180 bus1=BBT4097.1.2.3.0,bus2=BBT4111.1.2.3.0,Phases=3,Linecode=BT803_BT803_4_3_4,Length=0.029950000,Units=km
new line.11201 bus1=BBT4104.1.2.3.0,bus2=BBT4118.1.2.3.0,Phases=3,Linecode=BT108_BT107_7_3_1,Length=0.033820000,Units=km
new line.11600 bus1=BBT4279.1.2.3.0,bus2=BBT4272.1.2.3.0,Phases=3,Linecode=BT803_BT803_4_3_4,Length=0.011750000,Units=km
new line.11607 bus1=BBT4258.1.2.3.0,bus2=BBT4279.1.2.3.0,Phases=3,Linecode=BT513_BT513_7_3_1,Length=0.000510000,Units=km
new line.11614 bus1=BBT4279.1.2.3.0,bus2=BBT4293.1.2.3.0,Phases=3,Linecode=BT803_BT803_4_3_4,Length=0.032430000,Units=km
new line.11992 bus1=BBT4398.1.2.3.0,bus2=BBT4384.1.2.3.0,Phases=3,Linecode=BT107_BT106_7_3_1,Length=0.027570000,Units=km
new line.11999 bus1=BBT4398.1.2.3.0,bus2=BBT4447.1.2.3.0,Phases=3,Linecode=BT803_BT803_4_3_4,Length=0.032510000,Units=km
new line.12034 bus1=BBT4405.1.2.3.0,bus2=BBT4398.1.2.3.0,Phases=3,Linecode=BT107_BT106_7_3_1,Length=0.009210000,Units=km
new line.12475 bus1=BBT4545.1.2.3.0,bus2=BBT3588594.1.2.3.0,Phases=3,Linecode=BT810_BT810_4_3_4,Length=0.023010000,Units=km
new line.12496 bus1=BBT4559.1.2.3.0,bus2=BBT4552.1.2.3.0,Phases=3,Linecode=BT108_BT107_7_3_1,Length=0.017020000,Units=km
new line.12902856 bus1=BBT3486961.1.2.3.0,bus2=BBT3486968.1.2.3.0,Phases=3,Linecode=BT810_BT810_4_3_4,Length=0.039560000,Units=km
new line.13287 bus1=BBT4818.1.2.3.0,bus2=BBT4811.1.2.3.0,Phases=3,Linecode=BT809_BT809_4_3_4,Length=0.027570000,Units=km
new line.13945 bus1=BBT5049.1.2.3.0,bus2=BBT5056.1.2.3.0,Phases=3,Linecode=BT803_BT803_4_3_4,Length=0.034690000,Units=km
new line.14680 bus1=BBT5280.1.2.0,bus2=BBT5273.1.2.0,Phases=2,Linecode=BT108_BT108_7_2_1,Length=0.033950000,Units=km
new line.14687 bus1=BBT5259.1.2.0,bus2=BBT5280.1.2.0,Phases=2,Linecode=BT518_BT518_7_2_1,Length=0.000510000,Units=km
new line.14694 bus1=BBT5280.1.2.0,bus2=BBT5287.1.2.0,Phases=2,Linecode=BT108_BT108_7_2_1,Length=0.029050000,Units=km
new line.14729 bus1=BBT5287.1.2.0,bus2=BBT5294.1.2.0,Phases=2,Linecode=BT108_BT108_7_2_1,Length=0.044660000,Units=km
new line.15436 bus1=BBT5525.1.2.3.0,bus2=BBT5532.1.2.3.0,Phases=3,Linecode=BT108_BT107_7_3_1,Length=0.018780000,Units=km
new line.15464 bus1=BBT5539.1.2.3.0,bus2=BBT5469.1.2.3.0,Phases=3,Linecode=BT809_BT809_4_3_4,Length=0.026890000,Units=km
new line.15478 bus1=BBT5560.1.2.3.0,bus2=BBT5553.1.2.3.0,Phases=3,Linecode=BT803_BT803_4_3_4,Length=0.009480000,Units=km
new line.15989471 bus1=BBT7060503.1.2.3.0,bus2=BBT7060531.1.2.3.0,Phases=3,Linecode=BT810_BT810_4_3_4,Length=0.028140000,Units=km
new line.15989478 bus1=BBT7060503.1.2.3.0,bus2=BBT7060510.1.2.3.0,Phases=3,Linecode=BT810_BT810_4_3_4,Length=0.039530000,Units=km
new line.15989485 bus1=BBT7060531.1.2.3.0,bus2=BBT7060538.1.2.3.0,Phases=3,Linecode=BT810_BT810_4_3_4,Length=0.042020000,Units=km
new line.15989492 bus1=BBT7060538.1.2.3.0,bus2=BBT7060545.1.2.3.0,Phases=3,Linecode=BT810_BT810_4_3_4,Length=0.032630000,Units=km
new line.15989499 bus1=BBT7060545.1.2.3.0,bus2=BBT7060552.1.2.3.0,Phases=3,Linecode=BT810_BT810_4_3_4,Length=0.036030000,Units=km
new line.15989506 bus1=BBT7060510.1.2.3.0,bus2=BBT7060517.1.2.3.0,Phases=3,Linecode=BT810_BT810_4_3_4,Length=0.038460000,Units=km
new line.15989513 bus1=BBT7060517.1.2.3.0,bus2=BBT7060524.1.2.3.0,Phases=3,Linecode=BT810_BT810_4_3_4,Length=0.036200000,Units=km
new line.15996 bus1=BBT5721.1.2.3.0,bus2=BBT5714.1.2.3.0,Phases=3,Linecode=BT108_BT108_7_3_1,Length=0.015800000,Units=km
new line.16003 bus1=BBT5693.1.2.3.0,bus2=BBT5721.1.2.3.0,Phases=3,Linecode=BT518_BT518_7_3_1,Length=0.000510000,Units=km
new line.16006397 bus1=BBT7192474.1.2.3.0,bus2=BBT5039309.1.2.3.0,Phases=3,Linecode=BT810_BT810_4_3_4,Length=0.018990000,Units=km
new line.16006474 bus1=BBT7192558.1.2.3.0,bus2=BBT7192565.1.2.3.0,Phases=3,Linecode=BT514_BT514_7_3_1,Length=0.000510000,Units=km
new line.16010 bus1=BBT5721.1.2.3.0,bus2=BBT5728.1.2.3.0,Phases=3,Linecode=BT108_BT108_7_3_1,Length=0.015250000,Units=km
new line.16255 bus1=BBT5763.1.2.0,bus2=BBT5805.1.2.0,Phases=2,Linecode=BT513_BT513_7_2_1,Length=0.000510000,Units=km
new line.16262 bus1=BBT5805.1.2.0,bus2=BBT5826.1.2.0,Phases=2,Linecode=BT108_BT107_7_2_1,Length=0.033750000,Units=km
new line.16269 bus1=BBT5805.1.2.0,bus2=BBT3600942.1.2.0,Phases=2,Linecode=BT108_BT107_7_2_1,Length=0.021940000,Units=km
new line.16710 bus1=BBT5973.1.2.3.0,bus2=BBT5966.1.2.3.0,Phases=3,Linecode=BT108_BT107_7_3_1,Length=0.014860000,Units=km
new line.16731 bus1=BBT5980.1.2.3.0,bus2=BBT5973.1.2.3.0,Phases=3,Linecode=BT108_BT107_7_3_1,Length=0.015800000,Units=km
new line.16738 bus1=BBT5980.1.2.3.0,bus2=BBT5987.1.2.3.0,Phases=3,Linecode=BT106_BT106_7_3_1,Length=0.008600000,Units=km
new line.16766 bus1=BBT5994.1.2.3.0,bus2=BBT5980.1.2.3.0,Phases=3,Linecode=BT803_BT803_4_3_4,Length=0.028680000,Units=km
new line.17172 bus1=BBT6120.1.2.0,bus2=BBT6127.1.2.0,Phases=2,Linecode=BT807_BT807_4_2_3,Length=0.038700000,Units=km
new line.17193 bus1=BBT6127.1.2.0,bus2=BBT6134.1.2.0,Phases=2,Linecode=BT801_BT801_4_2_3,Length=0.026240000,Units=km
new line.17216557 bus1=BBT54449432.1.2.0,bus2=BBT1528.1.2.0,Phases=2,Linecode=BT108_BT107_7_2_1,Length=0.009990000,Units=km
new line.17222297 bus1=BBT54796821.1.2.3.0,bus2=BBT3306.1.2.3.0,Phases=3,Linecode=BT108_BT107_7_3_1,Length=0.010620000,Units=km
new line.17222556 bus1=BBT54796821.2.3.0,bus2=BBT54803191.2.3.0,Phases=2,Linecode=BT808_BT808_4_2_3,Length=0.033590000,Units=km
new line.17643571 bus1=BBT77376924.1.2.3.0,bus2=BBT133211087.1.2.3.0,Phases=3,Linecode=BT518_BT518_7_3_1,Length=0.000510000,Units=km
new line.17643606 bus1=BBT77376931.1.2.0,bus2=BBT77378429.1.2.0,Phases=2,Linecode=BT807_BT807_4_2_3,Length=0.040290000,Units=km
new line.17643648 bus1=BBT77376931.1.2.0,bus2=BBT77380424.1.2.0,Phases=2,Linecode=BT807_BT807_4_2_3,Length=0.028800000,Units=km
new line.17643655 bus1=BBT77380424.1.2.0,bus2=BBT77380732.1.2.0,Phases=2,Linecode=BT807_BT807_4_2_3,Length=0.040280000,Units=km
new line.17991765 bus1=BBT96271373.1.2.3.0,bus2=BBT96273256.1.2.3.0,Phases=3,Linecode=BT803_BT803_4_3_4,Length=0.019540000,Units=km
new line.17991835 bus1=BBT96272297.1.2.3.0,bus2=BBT297929.1.2.3.0,Phases=3,Linecode=BT518_BT518_7_3_1,Length=0.000510000,Units=km
new line.17993081 bus1=BBT390070.1.2.3.0,bus2=BBT158576550.1.2.3.0,Phases=3,Linecode=BT803_BT803_4_3_4,Length=0.011560000,Units=km
new line.17993102 bus1=BBT96298428.1.2.3.0,bus2=BBT96302138.1.2.3.0,Phases=3,Linecode=BT803_BT803_4_3_4,Length=0.024810000,Units=km
new line.17998 bus1=BBT6421.1.2.3.0,bus2=BBT6407.1.2.3.0,Phases=3,Linecode=BT107_BT107_7_3_1,Length=0.039090000,Units=km
new line.18021669 bus1=BBT97375924.1.2.3.0,bus2=BBT97375931.1.2.3.0,Phases=3,Linecode=BT513_BT509_7_3_1,Length=0.000510000,Units=km
new line.18021704 bus1=BBT97375931.1.2.3.0,bus2=BBT97377268.1.2.3.0,Phases=3,Linecode=BT803_BT803_4_3_4,Length=0.045330000,Units=km
new line.18021711 bus1=BBT97377268.1.2.3.0,bus2=BBT97377275.1.2.3.0,Phases=3,Linecode=BT803_BT803_4_3_4,Length=0.038190000,Units=km
new line.18021718 bus1=BBT97377275.1.2.3.0,bus2=BBT97378668.1.2.3.0,Phases=3,Linecode=BT803_BT803_4_3_4,Length=0.025860000,Units=km
new line.18021732 bus1=BBT97378668.1.2.3.0,bus2=BBT97379081.1.2.3.0,Phases=3,Linecode=BT810_BT810_4_3_4,Length=0.024780000,Units=km
new line.18021739 bus1=BBT97379081.1.2.3.0,bus2=BBT97379739.1.2.3.0,Phases=3,Linecode=BT810_BT810_4_3_4,Length=0.021220000,Units=km
new line.18021746 bus1=BBT97379739.1.2.3.0,bus2=BBT97379746.1.2.3.0,Phases=3,Linecode=BT810_BT810_4_3_4,Length=0.031420000,Units=km
new line.18021760 bus1=BBT97379746.1.2.3.0,bus2=BBT97380432.1.2.3.0,Phases=3,Linecode=BT810_BT810_4_3_4,Length=0.037930000,Units=km
new line.18021767 bus1=BBT97380432.1.2.3.0,bus2=BBT97380453.1.2.3.0,Phases=3,Linecode=BT810_BT810_4_3_4,Length=0.050570000,Units=km
new line.18021774 bus1=BBT97380453.1.2.3.0,bus2=BBT97380460.1.2.3.0,Phases=3,Linecode=BT810_BT810_4_3_4,Length=0.051890000,Units=km
new line.18021781 bus1=BBT97380460.1.2.3.0,bus2=BBT97380467.1.2.3.0,Phases=3,Linecode=BT810_BT810_4_3_4,Length=0.018960000,Units=km
new line.18021900 bus1=BBT110188269.1.2.3.0,bus2=BBT97384912.1.2.3.0,Phases=3,Linecode=BT803_BT803_4_3_4,Length=0.036180000,Units=km
new line.18022362 bus1=BBT97384912.1.2.3.0,bus2=BBT97402678.1.2.3.0,Phases=3,Linecode=BT803_BT803_4_3_4,Length=0.031260000,Units=km
new line.18022369 bus1=BBT97402678.1.2.3.0,bus2=BBT97402685.1.2.3.0,Phases=3,Linecode=BT803_BT803_4_3_4,Length=0.029680000,Units=km
new line.18022376 bus1=BBT97402685.1.2.3.0,bus2=BBT97402930.1.2.3.0,Phases=3,Linecode=BT810_BT810_4_3_4,Length=0.037030000,Units=km
new line.18022551 bus1=BBT97402930.1.2.3.0,bus2=BBT97412485.1.2.3.0,Phases=3,Linecode=BT810_BT810_4_3_4,Length=0.040020000,Units=km
new line.18022558 bus1=BBT97412485.1.2.3.0,bus2=BBT97412492.1.2.3.0,Phases=3,Linecode=BT810_BT810_4_3_4,Length=0.030050000,Units=km
new line.18022565 bus1=BBT97412492.1.2.3.0,bus2=BBT97412667.1.2.3.0,Phases=3,Linecode=BT810_BT810_4_3_4,Length=0.022080000,Units=km
new line.18022572 bus1=BBT110200218.1.2.3.0,bus2=BBT97412674.1.2.3.0,Phases=3,Linecode=BT810_BT810_4_3_4,Length=0.023330000,Units=km
new line.18022698 bus1=BBT97412674.1.2.3.0,bus2=BBT97415579.1.2.3.0,Phases=3,Linecode=BT810_BT810_4_3_4,Length=0.028630000,Units=km
new line.18022936 bus1=BBT97421571.1.2.3.0,bus2=BBT97421578.1.2.3.0,Phases=3,Linecode=BT518_BT518_7_3_1,Length=0.000510000,Units=km
new line.18022943 bus1=BBT97421578.1.2.3.0,bus2=BBT97421676.1.2.3.0,Phases=3,Linecode=BT803_BT803_4_3_4,Length=0.025060000,Units=km
new line.18022950 bus1=BBT97421676.1.2.3.0,bus2=BBT97421690.1.2.3.0,Phases=3,Linecode=BT803_BT803_4_3_4,Length=0.030390000,Units=km
new line.18022957 bus1=BBT97421578.1.2.3.0,bus2=BBT97422005.1.2.3.0,Phases=3,Linecode=BT803_BT803_4_3_4,Length=0.031120000,Units=km
new line.18022964 bus1=BBT97422005.1.2.3.0,bus2=BBT97422012.1.2.3.0,Phases=3,Linecode=BT803_BT803_4_3_4,Length=0.029050000,Units=km
new line.18022971 bus1=BBT97422012.1.2.3.0,bus2=BBT97422019.1.2.3.0,Phases=3,Linecode=BT803_BT803_4_3_4,Length=0.033520000,Units=km
new line.18023020 bus1=BBT97421690.1.2.3.0,bus2=BBT97424371.1.2.3.0,Phases=3,Linecode=BT810_BT810_4_3_4,Length=0.039800000,Units=km
new line.18023034 bus1=BBT97424371.1.2.3.0,bus2=BBT97424483.1.2.3.0,Phases=3,Linecode=BT810_BT810_4_3_4,Length=0.029810000,Units=km
...