CemigDFeeders/CGAU10/CGAU10Ramais.dss
new line.RML10064954 bus1=BBT20386.1.0,bus2=RML210064954.1.0,Phases=1,Linecode=CABBTG02_4_1,Length=0.017000000,Units=km
new line.RML10068 bus1=BBT2984.1.2.0,bus2=RML200010068.1.2.0,Phases=2,Linecode=CABBTG05_4_2,Length=0.017000000,Units=km
new line.RML10103 bus1=BBT3005.1.2.3.0,bus2=RML200010103.1.2.3.0,Phases=3,Linecode=CABBTG07_4_3,Length=0.017000000,Units=km
new line.RML10143300 bus1=BBT18111.1.2.0,bus2=RML210143300.1.2.0,Phases=2,Linecode=CABBT811_4_2,Length=0.017000000,Units=km
new line.RML10143901 bus1=BBT97504346.1.2.0,bus2=RML210143901.1.2.0,Phases=2,Linecode=CABBT811_4_2,Length=0.017000000,Units=km
new line.RML10143951 bus1=BBT298034.1.2.0,bus2=RML210143951.1.2.0,Phases=2,Linecode=CABBT811_4_2,Length=0.017000000,Units=km
new line.RML10144034 bus1=BBT8885.1.3.0,bus2=RML210144034.1.3.0,Phases=2,Linecode=CABBT811_4_2,Length=0.017000000,Units=km
new line.RML10144393 bus1=BBT70807.1.2.0,bus2=RML210144393.1.2.0,Phases=2,Linecode=CABBTG05_4_2,Length=0.017000000,Units=km
new line.RML10145 bus1=BBT3012.1.0,bus2=RML200010145.1.0,Phases=1,Linecode=CABBTG01_4_1,Length=0.017000000,Units=km
new line.RML10145091 bus1=BBT9872.3.0,bus2=RML210145091.3.0,Phases=1,Linecode=CABBTG02_4_1,Length=0.017000000,Units=km
new line.RML10145129 bus1=BBT338494.1.2.0,bus2=RML210145129.1.2.0,Phases=2,Linecode=CABBTG05_4_2,Length=0.017000000,Units=km
new line.RML10145708 bus1=BBT6197.1.2.0,bus2=RML210145708.1.2.0,Phases=2,Linecode=CABBTG05_4_2,Length=0.017000000,Units=km
new line.RML10145748 bus1=BBT2151.1.2.0,bus2=RML210145748.1.2.0,Phases=2,Linecode=CABBTG05_4_2,Length=0.017000000,Units=km
new line.RML10145776 bus1=BBT8906.1.0,bus2=RML210145776.1.0,Phases=1,Linecode=CABBTG02_4_1,Length=0.017000000,Units=km
new line.RML10146170 bus1=BBT5714.2.0,bus2=RML210146170.2.0,Phases=1,Linecode=CABBTG01_4_1,Length=0.017000000,Units=km
new line.RML10202878 bus1=BBT97469199.2.0,bus2=RML210202878.2.0,Phases=1,Linecode=CABBTG02_4_1,Length=0.017000000,Units=km
new line.RML10202891 bus1=BBT5994.1.0,bus2=RML210202891.1.0,Phases=1,Linecode=CABBTG02_4_1,Length=0.017000000,Units=km
new line.RML10202973 bus1=BBT389825.1.2.0,bus2=RML210202973.1.2.0,Phases=2,Linecode=CABBTG05_4_2,Length=0.017000000,Units=km
new line.RML10203007 bus1=BBT4237935.2.0,bus2=RML210203007.2.0,Phases=1,Linecode=CABBTG02_4_1,Length=0.017000000,Units=km
new line.RML10208 bus1=BBT3026.2.0,bus2=RML200010208.2.0,Phases=1,Linecode=CABBTG02_4_1,Length=0.017000000,Units=km
new line.RML10208873 bus1=BBT97469199.2.0,bus2=RML210208873.2.0,Phases=1,Linecode=CABBTG02_4_1,Length=0.017000000,Units=km
new line.RML10208882 bus1=BBT97469192.1.2.3.0,bus2=RML210208882.1.2.3.0,Phases=3,Linecode=CABBTG06_4_3,Length=0.017000000,Units=km
new line.RML10271 bus1=BBT3047.3.0,bus2=RML200010271.3.0,Phases=1,Linecode=CABBTG01_4_1,Length=0.017000000,Units=km
new line.RML10273727 bus1=BBT2389.1.2.0,bus2=RML210273727.1.2.0,Phases=2,Linecode=CABBTG05_4_2,Length=0.017000000,Units=km
new line.RML10327 bus1=BBT3075.1.2.3.0,bus2=RML200010327.1.2.3.0,Phases=3,Linecode=CABBTG06_4_3,Length=0.017000000,Units=km
new line.RML10331147 bus1=BBT11685.1.0,bus2=RML210331147.1.0,Phases=1,Linecode=CABBTG02_4_1,Length=0.017000000,Units=km
new line.RML10332960 bus1=BBT2326.1.0,bus2=RML210332960.1.0,Phases=1,Linecode=CABBTG02_4_1,Length=0.017000000,Units=km
new line.RML10333789 bus1=BBT389937.1.2.0,bus2=RML210333789.1.2.0,Phases=2,Linecode=CABBTG05_4_2,Length=0.017000000,Units=km
new line.RML10334 bus1=BBT3075.1.0,bus2=RML200010334.1.0,Phases=1,Linecode=CABBTG01_4_1,Length=0.017000000,Units=km
new line.RML10386126 bus1=BBT97469059.1.2.0,bus2=RML210386126.1.2.0,Phases=2,Linecode=CABBTG05_4_2,Length=0.017000000,Units=km
new line.RML10387099 bus1=BBT8003.1.2.3.0,bus2=RML210387099.1.2.3.0,Phases=3,Linecode=CABBTG06_4_3,Length=0.017000000,Units=km
new line.RML10390 bus1=BBT3096.2.3.0,bus2=RML200010390.2.3.0,Phases=2,Linecode=CABBTG05_4_2,Length=0.017000000,Units=km
new line.RML10391458 bus1=BBT148544950.2.3.0,bus2=RML210391458.2.3.0,Phases=2,Linecode=CABBTG05_4_2,Length=0.017000000,Units=km
new line.RML10446 bus1=BBT3103.2.0,bus2=RML200010446.2.0,Phases=1,Linecode=CABBTG01_4_1,Length=0.017000000,Units=km
new line.RML10446814 bus1=BBT389895.1.0,bus2=RML210446814.1.0,Phases=1,Linecode=CABBTG02_4_1,Length=0.017000000,Units=km
new line.RML10447829 bus1=BBT1983.1.0,bus2=RML210447829.1.0,Phases=1,Linecode=CABBTG02_4_1,Length=0.017000000,Units=km
new line.RML10449126 bus1=BBT150683388.1.3.0,bus2=RML210449126.1.3.0,Phases=2,Linecode=CABBT808_4_2,Length=0.017000000,Units=km
new line.RML10508690 bus1=BBT148546180.1.2.0,bus2=RML210508690.1.2.0,Phases=2,Linecode=CABBTG05_4_2,Length=0.017000000,Units=km
new line.RML10508695 bus1=BBT148547499.1.2.0,bus2=RML210508695.1.2.0,Phases=2,Linecode=CABBTG05_4_2,Length=0.020000000,Units=km
new line.RML10032207 bus1=BBT389916.1.0,bus2=RML210032207.1.0,Phases=1,Linecode=CABBTG01_4_1,Length=0.017000000,Units=km
...